LTspice 24.0.12 for Windows
Circuit: * C:\Users\smili\OneDrive\Documents\GitHub\Laboratorio_6_7_ITeDA\LTSpice\Octubre - Test Circuitos en configuración NO Inversor\bode_circuito_completo_con_capacitores_en_preamp_NO_Inversor_actualizado.asc
Start Time: Fri Sep 27 15:14:53 2024
solver = Normal
Maximum thread count: 12
tnom = 27
temp = 27
method = modified trap
v4: Removing PWL point (5.00167e-11,0)
Direct Newton iteration for .op point succeeded.
Total elapsed time: 0.081 seconds.

