LTspice 24.0.9 for Windows
Circuit: * C:\Users\Usuario\Documents\Laboratorio_6_7_ITeDA\LTSpice\Octubre - Test Circuitos en configuración NO Inversor\bode_circuito_completo_con_capacitores_en_preamp_inversor_v2.asc
Start Time: Tue Dec 31 17:31:14 2024
solver = Normal
Maximum thread count: 12
tnom = 27
temp = 27
method = modified trap
v2: Removing PWL point (5.00167e-11,0)
Direct Newton iteration for .op point succeeded.
Total elapsed time: 0.571 seconds.

