LTspice 24.0.9 for Windows
Circuit: * C:\Users\Usuario\Documents\Laboratorio_6_7_ITeDA\LTSpice\Octubre - Test Circuitos en configuración NO Inversor\bode_circuito_completo_con_capacitores_en_preamp_inversor_v1,5.asc
Start Time: Wed Oct 16 14:39:20 2024
solver = Normal
Maximum thread count: 12
tnom = 27
temp = 27
method = modified trap
v4: Removing PWL point (5.00167e-11,0)
v4: Removing PWL point (1.15005e-06,0)
v4: Removing PWL point (2.30005e-06,0)
v4: Removing PWL point (3.45005e-06,0)
v4: Removing PWL point (4.60005e-06,0)
v4: Removing PWL point (5.75005e-06,0)
v4: Removing PWL point (6.90005e-06,0)
v4: Removing PWL point (8.05005e-06,0)
v4: Removing PWL point (9.20005e-06,0)
v4: Removing PWL point (1.03501e-05,0)
v4: Removing PWL point (1.15001e-05,0)
v4: Removing PWL point (1.26501e-05,0)
v4: Removing PWL point (1.38001e-05,0)
v4: Removing PWL point (1.49501e-05,0)
v4: Removing PWL point (1.61001e-05,0)
v4: Removing PWL point (1.72501e-05,0)
v4: Removing PWL point (1.84001e-05,0)
v4: Removing PWL point (1.95501e-05,0)
v4: Removing PWL point (2.07001e-05,0)
v4: Removing PWL point (2.18501e-05,0)
v4: Removing PWL point (2.30001e-05,0)
v4: Removing PWL point (2.41501e-05,0)
v4: Removing PWL point (2.53001e-05,0)
v4: Removing PWL point (2.64501e-05,0)
v4: Removing PWL point (2.76001e-05,0)
v4: Removing PWL point (2.87501e-05,0)
v4: Removing PWL point (2.99001e-05,0)
v4: Removing PWL point (3.10501e-05,0)
v4: Removing PWL point (3.22001e-05,0)
v4: Removing PWL point (3.33501e-05,0)
v4: Removing PWL point (3.45001e-05,0)
v4: Removing PWL point (3.56501e-05,0)
v4: Removing PWL point (3.68001e-05,0)
v4: Removing PWL point (3.79501e-05,0)
v4: Removing PWL point (3.91001e-05,0)
v4: Removing PWL point (4.02501e-05,0)
v4: Removing PWL point (4.14001e-05,0)
v4: Removing PWL point (4.25501e-05,0)
v4: Removing PWL point (4.37001e-05,0)
v4: Removing PWL point (4.48501e-05,0)
v4: Removing PWL point (4.60001e-05,0)
v4: Removing PWL point (4.71501e-05,0)
v4: Removing PWL point (4.83001e-05,0)
v4: Removing PWL point (4.94501e-05,0)
v4: Removing PWL point (5.06001e-05,0)
v4: Removing PWL point (5.17501e-05,0)
v4: Removing PWL point (5.29001e-05,0)
v4: Removing PWL point (5.40501e-05,0)
v4: Removing PWL point (5.52001e-05,0)
v4: Removing PWL point (5.63501e-05,0)
v4: Removing PWL point (5.75001e-05,0)
v4: Removing PWL point (5.86501e-05,0)
v4: Removing PWL point (5.98001e-05,0)
v4: Removing PWL point (6.09501e-05,0)
v4: Removing PWL point (6.21001e-05,0)
v4: Removing PWL point (6.32501e-05,0)
v4: Removing PWL point (6.44001e-05,0)
v4: Removing PWL point (6.55501e-05,0)
v4: Removing PWL point (6.67001e-05,0)
v4: Removing PWL point (6.90001e-05,0)
v4: Removing PWL point (7.01501e-05,0)
v4: Removing PWL point (7.13001e-05,0)
v4: Removing PWL point (7.24501e-05,0)
v4: Removing PWL point (7.36001e-05,0)
v4: Removing PWL point (7.47501e-05,0)
v4: Removing PWL point (7.59001e-05,0)
v4: Removing PWL point (7.70501e-05,0)
v4: Removing PWL point (7.82001e-05,0)
v4: Removing PWL point (7.93501e-05,0)
v4: Removing PWL point (8.05001e-05,0)
v4: Removing PWL point (8.16501e-05,0)
v4: Removing PWL point (8.28001e-05,0)
v4: Removing PWL point (8.51001e-05,0)
v4: Removing PWL point (8.62501e-05,0)
v4: Removing PWL point (8.74001e-05,0)
v4: Removing PWL point (8.85501e-05,0)
v4: Removing PWL point (8.97001e-05,0)
v4: Removing PWL point (9.08501e-05,0)
v4: Removing PWL point (9.20001e-05,0)
v4: Removing PWL point (9.31501e-05,0)
v4: Removing PWL point (9.43001e-05,0)
v4: Removing PWL point (9.54501e-05,0)
v4: Removing PWL point (9.66001e-05,0)
v4: Removing PWL point (9.77501e-05,0)
v4: Removing PWL point (9.89001e-05,0)
v4: Removing PWL point (0.00010005,0)
v4: Removing PWL point (0.0001012,0)
v4: Removing PWL point (0.00010235,0)
v4: Removing PWL point (0.0001035,0)
v4: Removing PWL point (0.00010465,0)
v4: Removing PWL point (0.0001058,0)
v4: Removing PWL point (0.00010695,0)
v4: Removing PWL point (0.0001081,0)
v4: Removing PWL point (0.00010925,0)
v4: Removing PWL point (0.0001104,0)
v4: Removing PWL point (0.00011155,0)
v4: Removing PWL point (0.0001127,0)
v4: Removing PWL point (0.00011385,0)
v4: Removing PWL point (0.000115,0)
v4: Removing PWL point (0.00011615,0)
v4: Removing PWL point (0.0001173,0)
v4: Removing PWL point (0.00011845,0)
v4: Removing PWL point (0.0001196,0)
v4: Removing PWL point (0.00012075,0)
v4: Removing PWL point (0.0001219,0)
v4: Removing PWL point (0.00012305,0)
v4: Removing PWL point (0.0001242,0)
v4: Removing PWL point (0.00012535,0)
v4: Removing PWL point (0.0001265,0)
v4: Removing PWL point (0.00012765,0)
v4: Removing PWL point (0.0001288,0)
v4: Removing PWL point (0.00012995,0)
v4: Removing PWL point (0.0001311,0)
v4: Removing PWL point (0.00013225,0)
v4: Removing PWL point (0.0001334,0)
v4: Removing PWL point (0.00013455,0)
v4: Removing PWL point (0.0001357,0)
v4: Removing PWL point (0.00013685,0)
v4: Removing PWL point (0.000138,0)
v4: Removing PWL point (0.00013915,0)
v4: Removing PWL point (0.0001403,0)
v4: Removing PWL point (0.00014145,0)
v4: Removing PWL point (0.0001426,0)
v4: Removing PWL point (0.00014375,0)
v4: Removing PWL point (0.0001449,0)
v4: Removing PWL point (0.00014605,0)
v4: Removing PWL point (0.0001472,0)
v4: Removing PWL point (0.00014835,0)
v4: Removing PWL point (0.0001495,0)
v4: Removing PWL point (0.00015065,0)
v4: Removing PWL point (0.0001518,0)
v4: Removing PWL point (0.00015295,0)
v4: Removing PWL point (0.0001541,0)
v4: Removing PWL point (0.00015525,0)
v4: Removing PWL point (0.0001564,0)
v4: Removing PWL point (0.00015755,0)
v4: Removing PWL point (0.0001587,0)
v4: Removing PWL point (0.00015985,0)
v4: Removing PWL point (0.000161,0)
v4: Removing PWL point (0.00016215,0)
v4: Removing PWL point (0.0001633,0)
v4: Removing PWL point (0.00016445,0)
v4: Removing PWL point (0.0001656,0)
v4: Removing PWL point (0.00016675,0)
v4: Removing PWL point (0.0001679,0)
v4: Removing PWL point (0.00016905,0)
v4: Removing PWL point (0.0001702,0)
v4: Removing PWL point (0.00017135,0)
v4: Removing PWL point (0.0001725,0)
v4: Removing PWL point (0.00017365,0)
v4: Removing PWL point (0.0001748,0)
v4: Removing PWL point (0.00017595,0)
v4: Removing PWL point (0.0001771,0)
v4: Removing PWL point (0.00017825,0)
v4: Removing PWL point (0.0001794,0)
v4: Removing PWL point (0.00018055,0)
v4: Removing PWL point (0.0001817,0)
v4: Removing PWL point (0.00018285,0)
v4: Removing PWL point (0.000184,0)
v4: Removing PWL point (0.00018515,0)
v4: Removing PWL point (0.0001863,0)
v4: Removing PWL point (0.00018745,0)
v4: Removing PWL point (0.0001886,0)
v4: Removing PWL point (0.00018975,0)
v4: Removing PWL point (0.0001909,0)
v4: Removing PWL point (0.00019205,0)
v4: Removing PWL point (0.0001932,0)
v4: Removing PWL point (0.00019435,0)
v4: Removing PWL point (0.0001955,0)
v4: Removing PWL point (0.00019665,0)
v4: Removing PWL point (0.0001978,0)
v4: Removing PWL point (0.00019895,0)
v4: Removing PWL point (0.0002001,0)
v4: Removing PWL point (0.00020125,0)
v4: Removing PWL point (0.0002024,0)
v4: Removing PWL point (0.00020355,0)
v4: Removing PWL point (0.0002047,0)
v4: Removing PWL point (0.00020585,0)
v4: Removing PWL point (0.000207,0)
v4: Removing PWL point (0.00020815,0)
v4: Removing PWL point (0.0002093,0)
v4: Removing PWL point (0.00021045,0)
v4: Removing PWL point (0.0002116,0)
v4: Removing PWL point (0.00021275,0)
v4: Removing PWL point (0.0002139,0)
v4: Removing PWL point (0.00021505,0)
v4: Removing PWL point (0.0002162,0)
v4: Removing PWL point (0.00021735,0)
v4: Removing PWL point (0.0002185,0)
v4: Removing PWL point (0.00021965,0)
v4: Removing PWL point (0.0002208,0)
v4: Removing PWL point (0.00022195,0)
v4: Removing PWL point (0.0002231,0)
v4: Removing PWL point (0.00022425,0)
v4: Removing PWL point (0.0002254,0)
v4: Removing PWL point (0.00022655,0)
v4: Removing PWL point (0.0002277,0)
v4: Removing PWL point (0.00022885,0)
v4: Removing PWL point (0.00023,0)
v4: Removing PWL point (0.00023115,0)
v4: Removing PWL point (0.0002323,0)
v4: Removing PWL point (0.00023345,0)
v4: Removing PWL point (0.0002346,0)
v4: Removing PWL point (0.00023575,0)
v4: Removing PWL point (0.0002369,0)
v4: Removing PWL point (0.00023805,0)
v4: Removing PWL point (0.0002392,0)
v4: Removing PWL point (0.0002415,0)
v4: Removing PWL point (0.00024265,0)
v4: Removing PWL point (0.0002438,0)
v4: Removing PWL point (0.00024495,0)
v4: Removing PWL point (0.0002461,0)
v4: Removing PWL point (0.00024725,0)
v4: Removing PWL point (0.0002484,0)
v4: Removing PWL point (0.00024955,0)
v4: Removing PWL point (0.0002507,0)
v4: Removing PWL point (0.00025185,0)
v4: Removing PWL point (0.000253,0)
v4: Removing PWL point (0.00025415,0)
v4: Removing PWL point (0.0002553,0)
v4: Removing PWL point (0.00025645,0)
v4: Removing PWL point (0.0002576,0)
v4: Removing PWL point (0.00025875,0)
v4: Removing PWL point (0.0002599,0)
v4: Removing PWL point (0.00026105,0)
v4: Removing PWL point (0.0002622,0)
v4: Removing PWL point (0.00026335,0)
v4: Removing PWL point (0.0002645,0)
v4: Removing PWL point (0.00026565,0)
v4: Removing PWL point (0.0002668,0)
v4: Removing PWL point (0.00026795,0)
v4: Removing PWL point (0.0002691,0)
v4: Removing PWL point (0.00027025,0)
v4: Removing PWL point (0.0002714,0)
v4: Removing PWL point (0.00027255,0)
v4: Removing PWL point (0.0002737,0)
v4: Removing PWL point (0.00027485,0)
v4: Removing PWL point (0.000276,0)
v4: Removing PWL point (0.00027715,0)
v4: Removing PWL point (0.0002783,0)
v4: Removing PWL point (0.00027945,0)
v4: Removing PWL point (0.0002806,0)
v4: Removing PWL point (0.00028175,0)
v4: Removing PWL point (0.0002829,0)
v4: Removing PWL point (0.00028405,0)
v4: Removing PWL point (0.0002852,0)
v4: Removing PWL point (0.00028635,0)
v4: Removing PWL point (0.0002875,0)
v4: Removing PWL point (0.00028865,0)
v4: Removing PWL point (0.0002898,0)
v4: Removing PWL point (0.00029095,0)
v4: Removing PWL point (0.0002921,0)
v4: Removing PWL point (0.00029325,0)
v4: Removing PWL point (0.0002944,0)
v4: Removing PWL point (0.00029555,0)
v4: Removing PWL point (0.0002967,0)
v4: Removing PWL point (0.00029785,0)
v4: Removing PWL point (0.000299,0)
v4: Removing PWL point (0.00030015,0)
v4: Removing PWL point (0.0003013,0)
v4: Removing PWL point (0.00030245,0)
v4: Removing PWL point (0.0003036,0)
v4: Removing PWL point (0.00030475,0)
v4: Removing PWL point (0.0003059,0)
v4: Removing PWL point (0.00030705,0)
v4: Removing PWL point (0.0003082,0)
v4: Removing PWL point (0.00030935,0)
v4: Removing PWL point (0.0003105,0)
v4: Removing PWL point (0.00031165,0)
v4: Removing PWL point (0.0003128,0)
v4: Removing PWL point (0.00031395,0)
v4: Removing PWL point (0.0003151,0)
v4: Removing PWL point (0.00031625,0)
v4: Removing PWL point (0.0003174,0)
v4: Removing PWL point (0.00031855,0)
v4: Removing PWL point (0.0003197,0)
v4: Removing PWL point (0.00032085,0)
v4: Removing PWL point (0.000322,0)
v4: Removing PWL point (0.00032315,0)
v4: Removing PWL point (0.00032545,0)
v4: Removing PWL point (0.0003266,0)
v4: Removing PWL point (0.00032775,0)
v4: Removing PWL point (0.0003289,0)
v4: Removing PWL point (0.00033005,0)
v4: Removing PWL point (0.0003312,0)
v4: Removing PWL point (0.00033235,0)
v4: Removing PWL point (0.0003335,0)
v4: Removing PWL point (0.00033465,0)
v4: Removing PWL point (0.0003358,0)
v4: Removing PWL point (0.00033695,0)
v4: Removing PWL point (0.0003381,0)
v4: Removing PWL point (0.00033925,0)
v4: Removing PWL point (0.0003404,0)
v4: Removing PWL point (0.00034155,0)
v4: Removing PWL point (0.0003427,0)
v4: Removing PWL point (0.00034385,0)
v4: Removing PWL point (0.000345,0)
v4: Removing PWL point (0.00034615,0)
v4: Removing PWL point (0.0003473,0)
v4: Removing PWL point (0.00034845,0)
v4: Removing PWL point (0.0003496,0)
v4: Removing PWL point (0.00035075,0)
v4: Removing PWL point (0.0003519,0)
v4: Removing PWL point (0.00035305,0)
v4: Removing PWL point (0.0003542,0)
v4: Removing PWL point (0.00035535,0)
v4: Removing PWL point (0.0003565,0)
v4: Removing PWL point (0.00035765,0)
v4: Removing PWL point (0.0003588,0)
v4: Removing PWL point (0.00035995,0)
v4: Removing PWL point (0.0003611,0)
v4: Removing PWL point (0.00036225,0)
v4: Removing PWL point (0.0003634,0)
v4: Removing PWL point (0.00036455,0)
v4: Removing PWL point (0.0003657,0)
v4: Removing PWL point (0.00036685,0)
v4: Removing PWL point (0.000368,0)
v4: Removing PWL point (0.00036915,0)
v4: Removing PWL point (0.0003703,0)
v4: Removing PWL point (0.00037145,0)
v4: Removing PWL point (0.0003726,0)
v4: Removing PWL point (0.00037375,0)
v4: Removing PWL point (0.0003749,0)
v4: Removing PWL point (0.00037605,0)
v4: Removing PWL point (0.0003772,0)
v4: Removing PWL point (0.00037835,0)
v4: Removing PWL point (0.0003795,0)
v4: Removing PWL point (0.00038065,0)
v4: Removing PWL point (0.0003818,0)
v4: Removing PWL point (0.00038295,0)
v4: Removing PWL point (0.0003841,0)
v4: Removing PWL point (0.00038525,0)
v4: Removing PWL point (0.0003864,0)
v4: Removing PWL point (0.00038755,0)
v4: Removing PWL point (0.0003887,0)
v4: Removing PWL point (0.00038985,0)
v4: Removing PWL point (0.000391,0)
v4: Removing PWL point (0.00039215,0)
v4: Removing PWL point (0.0003933,0)
v4: Removing PWL point (0.00039445,0)
v4: Removing PWL point (0.0003956,0)
v4: Removing PWL point (0.00039675,0)
v4: Removing PWL point (0.0003979,0)
v4: Removing PWL point (0.00039905,0)
v4: Removing PWL point (0.0004002,0)
v4: Removing PWL point (0.00040135,0)
v4: Removing PWL point (0.0004025,0)
v4: Removing PWL point (0.00040365,0)
v4: Removing PWL point (0.0004048,0)
v4: Removing PWL point (0.00040595,0)
v4: Removing PWL point (0.0004071,0)
v4: Removing PWL point (0.00040825,0)
v4: Removing PWL point (0.0004094,0)
v4: Removing PWL point (0.00041055,0)
v4: Removing PWL point (0.0004117,0)
v4: Removing PWL point (0.00041285,0)
v4: Removing PWL point (0.000414,0)
v4: Removing PWL point (0.00041515,0)
v4: Removing PWL point (0.0004163,0)
v4: Removing PWL point (0.00041745,0)
v4: Removing PWL point (0.0004186,0)
v4: Removing PWL point (0.00041975,0)
v4: Removing PWL point (0.0004209,0)
v4: Removing PWL point (0.00042205,0)
v4: Removing PWL point (0.0004232,0)
v4: Removing PWL point (0.00042435,0)
v4: Removing PWL point (0.0004255,0)
v4: Removing PWL point (0.00042665,0)
v4: Removing PWL point (0.0004278,0)
v4: Removing PWL point (0.00042895,0)
v4: Removing PWL point (0.0004301,0)
v4: Removing PWL point (0.00043125,0)
v4: Removing PWL point (0.0004324,0)
v4: Removing PWL point (0.00043355,0)
v4: Removing PWL point (0.0004347,0)
v4: Removing PWL point (0.00043585,0)
v4: Removing PWL point (0.000437,0)
v4: Removing PWL point (0.00043815,0)
v4: Removing PWL point (0.0004393,0)
v4: Removing PWL point (0.00044045,0)
v4: Removing PWL point (0.0004416,0)
v4: Removing PWL point (0.00044275,0)
v4: Removing PWL point (0.0004439,0)
v4: Removing PWL point (0.00044505,0)
v4: Removing PWL point (0.0004462,0)
v4: Removing PWL point (0.00044735,0)
v4: Removing PWL point (0.0004485,0)
v4: Removing PWL point (0.00044965,0)
v4: Removing PWL point (0.0004508,0)
v4: Removing PWL point (0.00045195,0)
v4: Removing PWL point (0.0004531,0)
v4: Removing PWL point (0.00045425,0)
v4: Removing PWL point (0.0004554,0)
v4: Removing PWL point (0.00045655,0)
v4: Removing PWL point (0.0004577,0)
v4: Removing PWL point (0.00045885,0)
v4: Removing PWL point (0.00046,0)
v4: Removing PWL point (0.00046115,0)
v4: Removing PWL point (0.0004623,0)
v4: Removing PWL point (0.00046345,0)
v4: Removing PWL point (0.0004646,0)
v4: Removing PWL point (0.00046575,0)
v4: Removing PWL point (0.0004669,0)
v4: Removing PWL point (0.00046805,0)
v4: Removing PWL point (0.0004692,0)
v4: Removing PWL point (0.00047035,0)
v4: Removing PWL point (0.0004715,0)
v4: Removing PWL point (0.00047265,0)
v4: Removing PWL point (0.0004738,0)
v4: Removing PWL point (0.00047495,0)
v4: Removing PWL point (0.0004761,0)
v4: Removing PWL point (0.00047725,0)
v4: Removing PWL point (0.0004784,0)
v4: Removing PWL point (0.00047955,0)
v4: Removing PWL point (0.0004807,0)
v4: Removing PWL point (0.00048185,0)
v4: Removing PWL point (0.000483,0)
v4: Removing PWL point (0.00048415,0)
v4: Removing PWL point (0.0004853,0)
v4: Removing PWL point (0.00048645,0)
v4: Removing PWL point (0.0004876,0)
v4: Removing PWL point (0.00048875,0)
v4: Removing PWL point (0.0004899,0)
v4: Removing PWL point (0.00049105,0)
v4: Removing PWL point (0.0004922,0)
v4: Removing PWL point (0.00049335,0)
v4: Removing PWL point (0.0004945,0)
v4: Removing PWL point (0.00049565,0)
v4: Removing PWL point (0.0004968,0)
v4: Removing PWL point (0.00049795,0)
v4: Removing PWL point (0.0004991,0)
v4: Removing PWL point (0.00050025,0)
v4: Removing PWL point (0.0005014,0)
v4: Removing PWL point (0.00050255,0)
v4: Removing PWL point (0.0005037,0)
v4: Removing PWL point (0.00050485,0)
v4: Removing PWL point (0.000506,0)
v4: Removing PWL point (0.00050715,0)
v4: Removing PWL point (0.0005083,0)
v4: Removing PWL point (0.00050945,0)
v4: Removing PWL point (0.0005106,0)
v4: Removing PWL point (0.00051175,0)
v4: Removing PWL point (0.0005129,0)
v4: Removing PWL point (0.00051405,0)
v4: Removing PWL point (0.0005152,0)
v4: Removing PWL point (0.00051635,0)
v4: Removing PWL point (0.0005175,0)
v4: Removing PWL point (0.00051865,0)
v4: Removing PWL point (0.0005198,0)
v4: Removing PWL point (0.0005221,0)
v4: Removing PWL point (0.00052325,0)
v4: Removing PWL point (0.0005244,0)
v4: Removing PWL point (0.00052555,0)
v4: Removing PWL point (0.0005267,0)
v4: Removing PWL point (0.00052785,0)
v4: Removing PWL point (0.000529,0)
v4: Removing PWL point (0.00053015,0)
v4: Removing PWL point (0.0005313,0)
v4: Removing PWL point (0.00053245,0)
v4: Removing PWL point (0.0005336,0)
v4: Removing PWL point (0.00053475,0)
v4: Removing PWL point (0.0005359,0)
v4: Removing PWL point (0.00053705,0)
v4: Removing PWL point (0.0005382,0)
v4: Removing PWL point (0.00053935,0)
v4: Removing PWL point (0.0005405,0)
v4: Removing PWL point (0.00054165,0)
v4: Removing PWL point (0.0005428,0)
v4: Removing PWL point (0.00054395,0)
v4: Removing PWL point (0.0005451,0)
v4: Removing PWL point (0.00054625,0)
v4: Removing PWL point (0.0005474,0)
v4: Removing PWL point (0.00054855,0)
v4: Removing PWL point (0.0005497,0)
v4: Removing PWL point (0.00055085,0)
v4: Removing PWL point (0.000552,0)
v4: Removing PWL point (0.00055315,0)
v4: Removing PWL point (0.0005543,0)
v4: Removing PWL point (0.00055545,0)
v4: Removing PWL point (0.0005566,0)
v4: Removing PWL point (0.00055775,0)
v4: Removing PWL point (0.0005589,0)
v4: Removing PWL point (0.00056005,0)
v4: Removing PWL point (0.0005612,0)
v4: Removing PWL point (0.00056235,0)
v4: Removing PWL point (0.0005635,0)
v4: Removing PWL point (0.00056465,0)
v4: Removing PWL point (0.0005658,0)
v4: Removing PWL point (0.00056695,0)
v4: Removing PWL point (0.0005681,0)
v4: Removing PWL point (0.00056925,0)
v4: Removing PWL point (0.0005704,0)
v4: Removing PWL point (0.00057155,0)
v4: Removing PWL point (0.0005727,0)
v4: Removing PWL point (0.00057385,0)
v4: Removing PWL point (0.000575,0)
v4: Removing PWL point (0.00057615,0)
v4: Removing PWL point (0.0005773,0)
v4: Removing PWL point (0.00057845,0)
v4: Removing PWL point (0.0005796,0)
v4: Removing PWL point (0.0005819,0)
v4: Removing PWL point (0.00058305,0)
v4: Removing PWL point (0.0005842,0)
v4: Removing PWL point (0.00058535,0)
v4: Removing PWL point (0.0005865,0)
v4: Removing PWL point (0.00058765,0)
v4: Removing PWL point (0.0005888,0)
v4: Removing PWL point (0.00058995,0)
v4: Removing PWL point (0.0005911,0)
v4: Removing PWL point (0.00059225,0)
v4: Removing PWL point (0.0005934,0)
v4: Removing PWL point (0.00059455,0)
v4: Removing PWL point (0.0005957,0)
v4: Removing PWL point (0.00059685,0)
v4: Removing PWL point (0.000598,0)
v4: Removing PWL point (0.00059915,0)
v4: Removing PWL point (0.0006003,0)
v4: Removing PWL point (0.00060145,0)
v4: Removing PWL point (0.0006026,0)
v4: Removing PWL point (0.00060375,0)
v4: Removing PWL point (0.0006049,0)
v4: Removing PWL point (0.00060605,0)
v4: Removing PWL point (0.0006072,0)
v4: Removing PWL point (0.00060835,0)
v4: Removing PWL point (0.0006095,0)
v4: Removing PWL point (0.00061065,0)
v4: Removing PWL point (0.0006118,0)
v4: Removing PWL point (0.00061295,0)
v4: Removing PWL point (0.0006141,0)
v4: Removing PWL point (0.00061525,0)
v4: Removing PWL point (0.0006164,0)
v4: Removing PWL point (0.00061755,0)
v4: Removing PWL point (0.0006187,0)
v4: Removing PWL point (0.00061985,0)
v4: Removing PWL point (0.000621,0)
v4: Removing PWL point (0.00062215,0)
v4: Removing PWL point (0.0006233,0)
v4: Removing PWL point (0.00062445,0)
v4: Removing PWL point (0.0006256,0)
v4: Removing PWL point (0.00062675,0)
v4: Removing PWL point (0.0006279,0)
v4: Removing PWL point (0.00062905,0)
v4: Removing PWL point (0.0006302,0)
v4: Removing PWL point (0.00063135,0)
v4: Removing PWL point (0.0006325,0)
v4: Removing PWL point (0.00063365,0)
v4: Removing PWL point (0.0006348,0)
v4: Removing PWL point (0.00063595,0)
v4: Removing PWL point (0.0006371,0)
v4: Removing PWL point (0.00063825,0)
v4: Removing PWL point (0.0006394,0)
v4: Removing PWL point (0.00064055,0)
v4: Removing PWL point (0.0006417,0)
v4: Removing PWL point (0.00064285,0)
v4: Removing PWL point (0.000644,0)
v4: Removing PWL point (0.00064515,0)
v4: Removing PWL point (0.0006463,0)
v4: Removing PWL point (0.00064745,0)
v4: Removing PWL point (0.0006486,0)
v4: Removing PWL point (0.00064975,0)
v4: Removing PWL point (0.0006509,0)
v4: Removing PWL point (0.00065205,0)
v4: Removing PWL point (0.0006532,0)
v4: Removing PWL point (0.00065435,0)
v4: Removing PWL point (0.0006555,0)
v4: Removing PWL point (0.00065665,0)
v4: Removing PWL point (0.0006578,0)
v4: Removing PWL point (0.00065895,0)
v4: Removing PWL point (0.0006601,0)
v4: Removing PWL point (0.00066125,0)
v4: Removing PWL point (0.0006624,0)
v4: Removing PWL point (0.00066355,0)
v4: Removing PWL point (0.0006647,0)
v4: Removing PWL point (0.00066585,0)
v4: Removing PWL point (0.000667,0)
v4: Removing PWL point (0.00066815,0)
v4: Removing PWL point (0.0006693,0)
v4: Removing PWL point (0.00067045,0)
v4: Removing PWL point (0.0006716,0)
v4: Removing PWL point (0.00067275,0)
v4: Removing PWL point (0.0006739,0)
v4: Removing PWL point (0.00067505,0)
v4: Removing PWL point (0.0006762,0)
v4: Removing PWL point (0.00067735,0)
v4: Removing PWL point (0.0006785,0)
v4: Removing PWL point (0.00067965,0)
v4: Removing PWL point (0.0006808,0)
v4: Removing PWL point (0.00068195,0)
v4: Removing PWL point (0.0006831,0)
v4: Removing PWL point (0.00068425,0)
v4: Removing PWL point (0.0006854,0)
v4: Removing PWL point (0.00068655,0)
v4: Removing PWL point (0.0006877,0)
v4: Removing PWL point (0.00068885,0)
v4: Removing PWL point (0.00069,0)
v4: Removing PWL point (0.00069115,0)
v4: Removing PWL point (0.0006923,0)
v4: Removing PWL point (0.00069345,0)
v4: Removing PWL point (0.0006946,0)
v4: Removing PWL point (0.00069575,0)
v4: Removing PWL point (0.0006969,0)
v4: Removing PWL point (0.00069805,0)
v4: Removing PWL point (0.0006992,0)
v4: Removing PWL point (0.00070035,0)
v4: Removing PWL point (0.0007015,0)
v4: Removing PWL point (0.00070265,0)
v4: Removing PWL point (0.0007038,0)
v4: Removing PWL point (0.00070495,0)
v4: Removing PWL point (0.0007061,0)
v4: Removing PWL point (0.00070725,0)
v4: Removing PWL point (0.0007084,0)
v4: Removing PWL point (0.00070955,0)
v4: Removing PWL point (0.0007107,0)
v4: Removing PWL point (0.00071185,0)
v4: Removing PWL point (0.000713,0)
v4: Removing PWL point (0.00071415,0)
v4: Removing PWL point (0.0007153,0)
v4: Removing PWL point (0.00071645,0)
v4: Removing PWL point (0.0007176,0)
v4: Removing PWL point (0.00071875,0)
v4: Removing PWL point (0.0007199,0)
v4: Removing PWL point (0.00072105,0)
v4: Removing PWL point (0.0007222,0)
v4: Removing PWL point (0.00072335,0)
v4: Removing PWL point (0.0007245,0)
v4: Removing PWL point (0.00072565,0)
v4: Removing PWL point (0.0007268,0)
v4: Removing PWL point (0.00072795,0)
v4: Removing PWL point (0.0007291,0)
v4: Removing PWL point (0.00073025,0)
v4: Removing PWL point (0.0007314,0)
v4: Removing PWL point (0.00073255,0)
v4: Removing PWL point (0.0007337,0)
v4: Removing PWL point (0.00073485,0)
v4: Removing PWL point (0.000736,0)
v4: Removing PWL point (0.00073715,0)
v4: Removing PWL point (0.0007383,0)
v4: Removing PWL point (0.00073945,0)
v4: Removing PWL point (0.0007406,0)
v4: Removing PWL point (0.00074175,0)
v4: Removing PWL point (0.0007429,0)
v4: Removing PWL point (0.00074405,0)
v4: Removing PWL point (0.0007452,0)
v4: Removing PWL point (0.00074635,0)
v4: Removing PWL point (0.0007475,0)
v4: Removing PWL point (0.00074865,0)
v4: Removing PWL point (0.0007498,0)
v4: Removing PWL point (0.00075095,0)
v4: Removing PWL point (0.0007521,0)
v4: Removing PWL point (0.00075325,0)
v4: Removing PWL point (0.0007544,0)
v4: Removing PWL point (0.00075555,0)
v4: Removing PWL point (0.0007567,0)
v4: Removing PWL point (0.00075785,0)
v4: Removing PWL point (0.000759,0)
v4: Removing PWL point (0.00076015,0)
v4: Removing PWL point (0.0007613,0)
v4: Removing PWL point (0.00076245,0)
v4: Removing PWL point (0.0007636,0)
v4: Removing PWL point (0.0007659,0)
v4: Removing PWL point (0.00076705,0)
v4: Removing PWL point (0.0007682,0)
v4: Removing PWL point (0.00076935,0)
v4: Removing PWL point (0.0007705,0)
v4: Removing PWL point (0.00077165,0)
v4: Removing PWL point (0.0007728,0)
v4: Removing PWL point (0.00077395,0)
v4: Removing PWL point (0.0007751,0)
v4: Removing PWL point (0.00077625,0)
v4: Removing PWL point (0.0007774,0)
v4: Removing PWL point (0.00077855,0)
v4: Removing PWL point (0.0007797,0)
v4: Removing PWL point (0.00078085,0)
v4: Removing PWL point (0.000782,0)
v4: Removing PWL point (0.0007843,0)
v4: Removing PWL point (0.00078545,0)
v4: Removing PWL point (0.0007866,0)
v4: Removing PWL point (0.00078775,0)
v4: Removing PWL point (0.0007889,0)
v4: Removing PWL point (0.00079005,0)
v4: Removing PWL point (0.0007912,0)
v4: Removing PWL point (0.00079235,0)
v4: Removing PWL point (0.0007935,0)
v4: Removing PWL point (0.00079465,0)
v4: Removing PWL point (0.0007958,0)
v4: Removing PWL point (0.00079695,0)
v4: Removing PWL point (0.0007981,0)
v4: Removing PWL point (0.00079925,0)
v4: Removing PWL point (0.0008004,0)
v4: Removing PWL point (0.00080155,0)
v4: Removing PWL point (0.0008027,0)
v4: Removing PWL point (0.000805,0)
v4: Removing PWL point (0.00080615,0)
v4: Removing PWL point (0.0008073,0)
v4: Removing PWL point (0.00080845,0)
v4: Removing PWL point (0.0008096,0)
v4: Removing PWL point (0.00081075,0)
v4: Removing PWL point (0.0008119,0)
v4: Removing PWL point (0.00081305,0)
v4: Removing PWL point (0.0008142,0)
v4: Removing PWL point (0.00081535,0)
v4: Removing PWL point (0.0008165,0)
v4: Removing PWL point (0.00081765,0)
v4: Removing PWL point (0.0008188,0)
v4: Removing PWL point (0.00081995,0)
v4: Removing PWL point (0.0008211,0)
v4: Removing PWL point (0.00082225,0)
v4: Removing PWL point (0.0008234,0)
v4: Removing PWL point (0.00082455,0)
v4: Removing PWL point (0.0008257,0)
v4: Removing PWL point (0.00082685,0)
v4: Removing PWL point (0.000828,0)
v4: Removing PWL point (0.00082915,0)
v4: Removing PWL point (0.0008303,0)
v4: Removing PWL point (0.00083145,0)
v4: Removing PWL point (0.0008326,0)
v4: Removing PWL point (0.00083375,0)
v4: Removing PWL point (0.0008349,0)
v4: Removing PWL point (0.00083605,0)
v4: Removing PWL point (0.0008372,0)
v4: Removing PWL point (0.00083835,0)
v4: Removing PWL point (0.0008395,0)
v4: Removing PWL point (0.00084065,0)
v4: Removing PWL point (0.0008418,0)
v4: Removing PWL point (0.00084295,0)
v4: Removing PWL point (0.0008441,0)
v4: Removing PWL point (0.00084525,0)
v4: Removing PWL point (0.0008464,0)
v4: Removing PWL point (0.00084755,0)
v4: Removing PWL point (0.0008487,0)
v4: Removing PWL point (0.00084985,0)
v4: Removing PWL point (0.000851,0)
v4: Removing PWL point (0.00085215,0)
v4: Removing PWL point (0.0008533,0)
v4: Removing PWL point (0.00085445,0)
v4: Removing PWL point (0.0008556,0)
v4: Removing PWL point (0.00085675,0)
v4: Removing PWL point (0.0008579,0)
v4: Removing PWL point (0.00085905,0)
v4: Removing PWL point (0.0008602,0)
v4: Removing PWL point (0.00086135,0)
v4: Removing PWL point (0.0008625,0)
v4: Removing PWL point (0.00086365,0)
v4: Removing PWL point (0.0008648,0)
v4: Removing PWL point (0.00086595,0)
v4: Removing PWL point (0.0008671,0)
v4: Removing PWL point (0.00086825,0)
v4: Removing PWL point (0.0008694,0)
v4: Removing PWL point (0.00087055,0)
v4: Removing PWL point (0.0008717,0)
v4: Removing PWL point (0.00087285,0)
v4: Removing PWL point (0.000874,0)
v4: Removing PWL point (0.00087515,0)
v4: Removing PWL point (0.0008763,0)
v4: Removing PWL point (0.00087745,0)
v4: Removing PWL point (0.0008786,0)
v4: Removing PWL point (0.00087975,0)
v4: Removing PWL point (0.0008809,0)
v4: Removing PWL point (0.00088205,0)
v4: Removing PWL point (0.0008832,0)
v4: Removing PWL point (0.00088435,0)
v4: Removing PWL point (0.0008855,0)
v4: Removing PWL point (0.00088665,0)
v4: Removing PWL point (0.0008878,0)
v4: Removing PWL point (0.00088895,0)
v4: Removing PWL point (0.0008901,0)
v4: Removing PWL point (0.00089125,0)
v4: Removing PWL point (0.0008924,0)
v4: Removing PWL point (0.00089355,0)
v4: Removing PWL point (0.0008947,0)
v4: Removing PWL point (0.00089585,0)
v4: Removing PWL point (0.000897,0)
v4: Removing PWL point (0.00089815,0)
v4: Removing PWL point (0.0008993,0)
v4: Removing PWL point (0.00090045,0)
v4: Removing PWL point (0.0009016,0)
v4: Removing PWL point (0.00090275,0)
v4: Removing PWL point (0.0009039,0)
v4: Removing PWL point (0.00090505,0)
v4: Removing PWL point (0.0009062,0)
v4: Removing PWL point (0.00090735,0)
v4: Removing PWL point (0.0009085,0)
v4: Removing PWL point (0.00090965,0)
v4: Removing PWL point (0.0009108,0)
v4: Removing PWL point (0.00091195,0)
v4: Removing PWL point (0.0009131,0)
v4: Removing PWL point (0.00091425,0)
v4: Removing PWL point (0.0009154,0)
v4: Removing PWL point (0.00091655,0)
v4: Removing PWL point (0.0009177,0)
v4: Removing PWL point (0.00091885,0)
v4: Removing PWL point (0.00092,0)
v4: Removing PWL point (0.00092115,0)
v4: Removing PWL point (0.0009223,0)
v4: Removing PWL point (0.00092345,0)
v4: Removing PWL point (0.0009246,0)
v4: Removing PWL point (0.00092575,0)
v4: Removing PWL point (0.0009269,0)
v4: Removing PWL point (0.00092805,0)
v4: Removing PWL point (0.0009292,0)
v4: Removing PWL point (0.00093035,0)
v4: Removing PWL point (0.0009315,0)
v4: Removing PWL point (0.00093265,0)
v4: Removing PWL point (0.0009338,0)
v4: Removing PWL point (0.00093495,0)
v4: Removing PWL point (0.0009361,0)
v4: Removing PWL point (0.00093725,0)
v4: Removing PWL point (0.0009384,0)
v4: Removing PWL point (0.00093955,0)
v4: Removing PWL point (0.0009407,0)
v4: Removing PWL point (0.00094185,0)
v4: Removing PWL point (0.000943,0)
v4: Removing PWL point (0.00094415,0)
v4: Removing PWL point (0.0009453,0)
v4: Removing PWL point (0.00094645,0)
v4: Removing PWL point (0.0009476,0)
v4: Removing PWL point (0.00094875,0)
v4: Removing PWL point (0.0009499,0)
v4: Removing PWL point (0.00095105,0)
v4: Removing PWL point (0.0009522,0)
v4: Removing PWL point (0.00095335,0)
v4: Removing PWL point (0.0009545,0)
v4: Removing PWL point (0.00095565,0)
v4: Removing PWL point (0.0009568,0)
v4: Removing PWL point (0.00095795,0)
v4: Removing PWL point (0.0009591,0)
v4: Removing PWL point (0.00096025,0)
v4: Removing PWL point (0.0009614,0)
v4: Removing PWL point (0.00096255,0)
v4: Removing PWL point (0.0009637,0)
v4: Removing PWL point (0.00096485,0)
v4: Removing PWL point (0.000966,0)
v4: Removing PWL point (0.00096715,0)
v4: Removing PWL point (0.0009683,0)
v4: Removing PWL point (0.00096945,0)
v4: Removing PWL point (0.0009706,0)
v4: Removing PWL point (0.00097175,0)
v4: Removing PWL point (0.0009729,0)
v4: Removing PWL point (0.00097405,0)
v4: Removing PWL point (0.0009752,0)
v4: Removing PWL point (0.00097635,0)
v4: Removing PWL point (0.0009775,0)
v4: Removing PWL point (0.00097865,0)
v4: Removing PWL point (0.0009798,0)
v4: Removing PWL point (0.00098095,0)
v4: Removing PWL point (0.0009821,0)
v4: Removing PWL point (0.00098325,0)
v4: Removing PWL point (0.0009844,0)
v4: Removing PWL point (0.00098555,0)
v4: Removing PWL point (0.0009867,0)
v4: Removing PWL point (0.00098785,0)
v4: Removing PWL point (0.000989,0)
v4: Removing PWL point (0.00099015,0)
v4: Removing PWL point (0.0009913,0)
v4: Removing PWL point (0.00099245,0)
v4: Removing PWL point (0.0009936,0)
v4: Removing PWL point (0.00099475,0)
v4: Removing PWL point (0.0009959,0)
v4: Removing PWL point (0.00099705,0)
v4: Removing PWL point (0.0009982,0)
v4: Removing PWL point (0.0010005,0)
v4: Removing PWL point (0.00100165,0)
v4: Removing PWL point (0.0010028,0)
v4: Removing PWL point (0.00100395,0)
v4: Removing PWL point (0.0010051,0)
v4: Removing PWL point (0.00100625,0)
v4: Removing PWL point (0.0010074,0)
v4: Removing PWL point (0.00100855,0)
v4: Removing PWL point (0.0010097,0)
v4: Removing PWL point (0.00101085,0)
v4: Removing PWL point (0.001012,0)
v4: Removing PWL point (0.00101315,0)
v4: Removing PWL point (0.0010143,0)
v4: Removing PWL point (0.00101545,0)
v4: Removing PWL point (0.0010166,0)
v4: Removing PWL point (0.00101775,0)
v4: Removing PWL point (0.0010189,0)
v4: Removing PWL point (0.00102005,0)
v4: Removing PWL point (0.0010212,0)
v4: Removing PWL point (0.00102235,0)
v4: Removing PWL point (0.0010235,0)
v4: Removing PWL point (0.00102465,0)
v4: Removing PWL point (0.0010258,0)
v4: Removing PWL point (0.00102695,0)
v4: Removing PWL point (0.0010281,0)
v4: Removing PWL point (0.00102925,0)
v4: Removing PWL point (0.0010304,0)
v4: Removing PWL point (0.00103155,0)
v4: Removing PWL point (0.0010327,0)
v4: Removing PWL point (0.00103385,0)
v4: Removing PWL point (0.001035,0)
v4: Removing PWL point (0.00103615,0)
v4: Removing PWL point (0.0010373,0)
v4: Removing PWL point (0.00103845,0)
v4: Removing PWL point (0.0010396,0)
v4: Removing PWL point (0.00104075,0)
v4: Removing PWL point (0.0010419,0)
v4: Removing PWL point (0.00104305,0)
v4: Removing PWL point (0.0010442,0)
v4: Removing PWL point (0.00104535,0)
v4: Removing PWL point (0.0010465,0)
v4: Removing PWL point (0.00104765,0)
v4: Removing PWL point (0.0010488,0)
v4: Removing PWL point (0.00104995,0)
v4: Removing PWL point (0.0010511,0)
v4: Removing PWL point (0.00105225,0)
v4: Removing PWL point (0.0010534,0)
v4: Removing PWL point (0.00105455,0)
v4: Removing PWL point (0.0010557,0)
v4: Removing PWL point (0.00105685,0)
v4: Removing PWL point (0.001058,0)
v4: Removing PWL point (0.00105915,0)
v4: Removing PWL point (0.0010603,0)
v4: Removing PWL point (0.00106145,0)
v4: Removing PWL point (0.0010626,0)
v4: Removing PWL point (0.00106375,0)
v4: Removing PWL point (0.0010649,0)
v4: Removing PWL point (0.00106605,0)
v4: Removing PWL point (0.0010672,0)
v4: Removing PWL point (0.00106835,0)
v4: Removing PWL point (0.0010695,0)
v4: Removing PWL point (0.00107065,0)
v4: Removing PWL point (0.0010718,0)
v4: Removing PWL point (0.00107295,0)
v4: Removing PWL point (0.0010741,0)
v4: Removing PWL point (0.00107525,0)
v4: Removing PWL point (0.0010764,0)
v4: Removing PWL point (0.00107755,0)
v4: Removing PWL point (0.0010787,0)
v4: Removing PWL point (0.00107985,0)
v4: Removing PWL point (0.001081,0)
v4: Removing PWL point (0.00108215,0)
v4: Removing PWL point (0.0010833,0)
v4: Removing PWL point (0.00108445,0)
v4: Removing PWL point (0.0010856,0)
v4: Removing PWL point (0.00108675,0)
v4: Removing PWL point (0.0010879,0)
v4: Removing PWL point (0.00108905,0)
v4: Removing PWL point (0.0010902,0)
v4: Removing PWL point (0.00109135,0)
v4: Removing PWL point (0.0010925,0)
v4: Removing PWL point (0.00109365,0)
v4: Removing PWL point (0.0010948,0)
v4: Removing PWL point (0.00109595,0)
v4: Removing PWL point (0.0010971,0)
v4: Removing PWL point (0.00109825,0)
v4: Removing PWL point (0.0010994,0)
v4: Removing PWL point (0.00110055,0)
v4: Removing PWL point (0.0011017,0)
v4: Removing PWL point (0.00110285,0)
v4: Removing PWL point (0.001104,0)
v4: Removing PWL point (0.00110515,0)
v4: Removing PWL point (0.0011063,0)
v4: Removing PWL point (0.00110745,0)
v4: Removing PWL point (0.0011086,0)
v4: Removing PWL point (0.00110975,0)
v4: Removing PWL point (0.0011109,0)
v4: Removing PWL point (0.00111205,0)
v4: Removing PWL point (0.0011132,0)
v4: Removing PWL point (0.00111435,0)
v4: Removing PWL point (0.0011155,0)
v4: Removing PWL point (0.00111665,0)
v4: Removing PWL point (0.0011178,0)
v4: Removing PWL point (0.00111895,0)
v4: Removing PWL point (0.0011201,0)
v4: Removing PWL point (0.00112125,0)
v4: Removing PWL point (0.0011224,0)
v4: Removing PWL point (0.00112355,0)
v4: Removing PWL point (0.0011247,0)
v4: Removing PWL point (0.00112585,0)
v4: Removing PWL point (0.001127,0)
v4: Removing PWL point (0.00112815,0)
v4: Removing PWL point (0.0011293,0)
v4: Removing PWL point (0.00113045,0)
v4: Removing PWL point (0.0011316,0)
v4: Removing PWL point (0.00113275,0)
v4: Removing PWL point (0.0011339,0)
v4: Removing PWL point (0.00113505,0)
v4: Removing PWL point (0.0011362,0)
v4: Removing PWL point (0.00113735,0)
v4: Removing PWL point (0.0011385,0)
v4: Removing PWL point (0.00113965,0)
v4: Removing PWL point (0.0011408,0)
v4: Removing PWL point (0.00114195,0)
v4: Removing PWL point (0.0011431,0)
v4: Removing PWL point (0.00114425,0)
v4: Removing PWL point (0.0011454,0)
v4: Removing PWL point (0.00114655,0)
v4: Removing PWL point (0.0011477,0)
v4: Removing PWL point (0.00114885,0)
v4: Removing PWL point (0.00115,0)
v4: Removing PWL point (0.00115115,0)
v4: Removing PWL point (0.0011523,0)
v4: Removing PWL point (0.00115345,0)
v4: Removing PWL point (0.0011546,0)
v4: Removing PWL point (0.00115575,0)
v4: Removing PWL point (0.0011569,0)
v4: Removing PWL point (0.00115805,0)
v4: Removing PWL point (0.0011592,0)
v4: Removing PWL point (0.00116035,0)
v4: Removing PWL point (0.0011615,0)
v4: Removing PWL point (0.00116265,0)
v4: Removing PWL point (0.0011638,0)
v4: Removing PWL point (0.00116495,0)
v4: Removing PWL point (0.0011661,0)
v4: Removing PWL point (0.00116725,0)
v4: Removing PWL point (0.0011684,0)
v4: Removing PWL point (0.00116955,0)
v4: Removing PWL point (0.0011707,0)
v4: Removing PWL point (0.00117185,0)
v4: Removing PWL point (0.001173,0)
v4: Removing PWL point (0.00117415,0)
v4: Removing PWL point (0.0011753,0)
v4: Removing PWL point (0.00117645,0)
v4: Removing PWL point (0.0011776,0)
v4: Removing PWL point (0.00117875,0)
v4: Removing PWL point (0.0011799,0)
v4: Removing PWL point (0.00118105,0)
v4: Removing PWL point (0.0011822,0)
v4: Removing PWL point (0.00118335,0)
v4: Removing PWL point (0.0011845,0)
v4: Removing PWL point (0.00118565,0)
v4: Removing PWL point (0.0011868,0)
v4: Removing PWL point (0.00118795,0)
v4: Removing PWL point (0.0011891,0)
v4: Removing PWL point (0.00119025,0)
v4: Removing PWL point (0.0011914,0)
v4: Removing PWL point (0.00119255,0)
v4: Removing PWL point (0.0011937,0)
v4: Removing PWL point (0.00119485,0)
v4: Removing PWL point (0.001196,0)
v4: Removing PWL point (0.00119715,0)
v4: Removing PWL point (0.0011983,0)
v4: Removing PWL point (0.00119945,0)
v4: Removing PWL point (0.0012006,0)
v4: Removing PWL point (0.00120175,0)
v4: Removing PWL point (0.00120405,0)
v4: Removing PWL point (0.0012052,0)
v4: Removing PWL point (0.00120635,0)
v4: Removing PWL point (0.0012075,0)
v4: Removing PWL point (0.00120865,0)
v4: Removing PWL point (0.0012098,0)
v4: Removing PWL point (0.00121095,0)
v4: Removing PWL point (0.0012121,0)
v4: Removing PWL point (0.00121325,0)
v4: Removing PWL point (0.0012144,0)
v4: Removing PWL point (0.00121555,0)
v4: Removing PWL point (0.0012167,0)
v4: Removing PWL point (0.00121785,0)
v4: Removing PWL point (0.001219,0)
v4: Removing PWL point (0.00122015,0)
v4: Removing PWL point (0.0012213,0)
v4: Removing PWL point (0.00122245,0)
v4: Removing PWL point (0.0012236,0)
v4: Removing PWL point (0.00122475,0)
v4: Removing PWL point (0.0012259,0)
v4: Removing PWL point (0.00122705,0)
v4: Removing PWL point (0.0012282,0)
v4: Removing PWL point (0.00122935,0)
v4: Removing PWL point (0.0012305,0)
v4: Removing PWL point (0.00123165,0)
v4: Removing PWL point (0.0012328,0)
v4: Removing PWL point (0.00123395,0)
v4: Removing PWL point (0.0012351,0)
v4: Removing PWL point (0.00123625,0)
v4: Removing PWL point (0.0012374,0)
v4: Removing PWL point (0.00123855,0)
v4: Removing PWL point (0.0012397,0)
v4: Removing PWL point (0.00124085,0)
v4: Removing PWL point (0.001242,0)
v4: Removing PWL point (0.00124315,0)
v4: Removing PWL point (0.0012443,0)
v4: Removing PWL point (0.00124545,0)
v4: Removing PWL point (0.0012466,0)
v4: Removing PWL point (0.00124775,0)
v4: Removing PWL point (0.0012489,0)
v4: Removing PWL point (0.00125005,0)
v4: Removing PWL point (0.0012512,0)
v4: Removing PWL point (0.00125235,0)
v4: Removing PWL point (0.0012535,0)
v4: Removing PWL point (0.00125465,0)
v4: Removing PWL point (0.0012558,0)
v4: Removing PWL point (0.00125695,0)
v4: Removing PWL point (0.0012581,0)
v4: Removing PWL point (0.00125925,0)
v4: Removing PWL point (0.0012604,0)
v4: Removing PWL point (0.00126155,0)
v4: Removing PWL point (0.0012627,0)
v4: Removing PWL point (0.00126385,0)
v4: Removing PWL point (0.001265,0)
v4: Removing PWL point (0.00126615,0)
v4: Removing PWL point (0.0012673,0)
v4: Removing PWL point (0.00126845,0)
v4: Removing PWL point (0.0012696,0)
v4: Removing PWL point (0.00127075,0)
v4: Removing PWL point (0.0012719,0)
v4: Removing PWL point (0.00127305,0)
v4: Removing PWL point (0.0012742,0)
v4: Removing PWL point (0.00127535,0)
v4: Removing PWL point (0.0012765,0)
v4: Removing PWL point (0.00127765,0)
v4: Removing PWL point (0.0012788,0)
v4: Removing PWL point (0.00127995,0)
v4: Removing PWL point (0.0012811,0)
v4: Removing PWL point (0.00128225,0)
v4: Removing PWL point (0.0012834,0)
v4: Removing PWL point (0.00128455,0)
v4: Removing PWL point (0.0012857,0)
v4: Removing PWL point (0.00128685,0)
v4: Removing PWL point (0.001288,0)
v4: Removing PWL point (0.00128915,0)
v4: Removing PWL point (0.0012903,0)
v4: Removing PWL point (0.00129145,0)
v4: Removing PWL point (0.0012926,0)
v4: Removing PWL point (0.00129375,0)
v4: Removing PWL point (0.0012949,0)
v4: Removing PWL point (0.00129605,0)
v4: Removing PWL point (0.0012972,0)
v4: Removing PWL point (0.00129835,0)
v4: Removing PWL point (0.0012995,0)
v4: Removing PWL point (0.00130065,0)
v4: Removing PWL point (0.0013018,0)
v4: Removing PWL point (0.00130295,0)
v4: Removing PWL point (0.0013041,0)
v4: Removing PWL point (0.00130525,0)
v4: Removing PWL point (0.0013064,0)
v4: Removing PWL point (0.00130755,0)
v4: Removing PWL point (0.0013087,0)
v4: Removing PWL point (0.00130985,0)
v4: Removing PWL point (0.001311,0)
v4: Removing PWL point (0.00131215,0)
v4: Removing PWL point (0.0013133,0)
v4: Removing PWL point (0.00131445,0)
v4: Removing PWL point (0.0013156,0)
v4: Removing PWL point (0.00131675,0)
v4: Removing PWL point (0.0013179,0)
v4: Removing PWL point (0.00131905,0)
v4: Removing PWL point (0.0013202,0)
v4: Removing PWL point (0.00132135,0)
v4: Removing PWL point (0.0013225,0)
v4: Removing PWL point (0.00132365,0)
v4: Removing PWL point (0.0013248,0)
v4: Removing PWL point (0.00132595,0)
v4: Removing PWL point (0.0013271,0)
v4: Removing PWL point (0.00132825,0)
v4: Removing PWL point (0.0013294,0)
v4: Removing PWL point (0.00133055,0)
v4: Removing PWL point (0.0013317,0)
v4: Removing PWL point (0.00133285,0)
v4: Removing PWL point (0.001334,0)
v4: Removing PWL point (0.00133515,0)
v4: Removing PWL point (0.0013363,0)
v4: Removing PWL point (0.00133745,0)
v4: Removing PWL point (0.0013386,0)
v4: Removing PWL point (0.00133975,0)
v4: Removing PWL point (0.0013409,0)
v4: Removing PWL point (0.00134205,0)
v4: Removing PWL point (0.0013432,0)
v4: Removing PWL point (0.00134435,0)
v4: Removing PWL point (0.0013455,0)
v4: Removing PWL point (0.00134665,0)
v4: Removing PWL point (0.0013478,0)
v4: Removing PWL point (0.00134895,0)
v4: Removing PWL point (0.0013501,0)
v4: Removing PWL point (0.00135125,0)
v4: Removing PWL point (0.0013524,0)
v4: Removing PWL point (0.00135355,0)
v4: Removing PWL point (0.0013547,0)
v4: Removing PWL point (0.00135585,0)
v4: Removing PWL point (0.001357,0)
v4: Removing PWL point (0.00135815,0)
v4: Removing PWL point (0.00136045,0)
v4: Removing PWL point (0.0013616,0)
v4: Removing PWL point (0.00136275,0)
v4: Removing PWL point (0.0013639,0)
v4: Removing PWL point (0.00136505,0)
v4: Removing PWL point (0.0013662,0)
v4: Removing PWL point (0.00136735,0)
v4: Removing PWL point (0.0013685,0)
v4: Removing PWL point (0.00136965,0)
v4: Removing PWL point (0.0013708,0)
v4: Removing PWL point (0.00137195,0)
v4: Removing PWL point (0.0013731,0)
v4: Removing PWL point (0.00137425,0)
v4: Removing PWL point (0.0013754,0)
v4: Removing PWL point (0.00137655,0)
v4: Removing PWL point (0.0013777,0)
v4: Removing PWL point (0.00137885,0)
v4: Removing PWL point (0.00138,0)
v4: Removing PWL point (0.00138115,0)
v4: Removing PWL point (0.0013823,0)
v4: Removing PWL point (0.00138345,0)
v4: Removing PWL point (0.0013846,0)
v4: Removing PWL point (0.00138575,0)
v4: Removing PWL point (0.0013869,0)
v4: Removing PWL point (0.00138805,0)
v4: Removing PWL point (0.0013892,0)
v4: Removing PWL point (0.00139035,0)
v4: Removing PWL point (0.0013915,0)
v4: Removing PWL point (0.00139265,0)
v4: Removing PWL point (0.0013938,0)
v4: Removing PWL point (0.00139495,0)
v4: Removing PWL point (0.0013961,0)
v4: Removing PWL point (0.00139725,0)
v4: Removing PWL point (0.0013984,0)
v4: Removing PWL point (0.00139955,0)
v4: Removing PWL point (0.0014007,0)
v4: Removing PWL point (0.00140185,0)
v4: Removing PWL point (0.001403,0)
v4: Removing PWL point (0.00140415,0)
v4: Removing PWL point (0.0014053,0)
v4: Removing PWL point (0.00140645,0)
v4: Removing PWL point (0.0014076,0)
v4: Removing PWL point (0.00140875,0)
v4: Removing PWL point (0.0014099,0)
v4: Removing PWL point (0.00141105,0)
v4: Removing PWL point (0.0014122,0)
v4: Removing PWL point (0.00141335,0)
v4: Removing PWL point (0.0014145,0)
v4: Removing PWL point (0.00141565,0)
v4: Removing PWL point (0.0014168,0)
v4: Removing PWL point (0.00141795,0)
v4: Removing PWL point (0.0014191,0)
v4: Removing PWL point (0.00142025,0)
v4: Removing PWL point (0.0014214,0)
v4: Removing PWL point (0.00142255,0)
v4: Removing PWL point (0.0014237,0)
v4: Removing PWL point (0.00142485,0)
v4: Removing PWL point (0.001426,0)
v4: Removing PWL point (0.00142715,0)
v4: Removing PWL point (0.0014283,0)
v4: Removing PWL point (0.00142945,0)
v4: Removing PWL point (0.0014306,0)
v4: Removing PWL point (0.00143175,0)
v4: Removing PWL point (0.0014329,0)
v4: Removing PWL point (0.00143405,0)
v4: Removing PWL point (0.0014352,0)
v4: Removing PWL point (0.00143635,0)
v4: Removing PWL point (0.0014375,0)
v4: Removing PWL point (0.00143865,0)
v4: Removing PWL point (0.0014398,0)
v4: Removing PWL point (0.00144095,0)
v4: Removing PWL point (0.0014421,0)
v4: Removing PWL point (0.00144325,0)
v4: Removing PWL point (0.0014444,0)
v4: Removing PWL point (0.00144555,0)
v4: Removing PWL point (0.0014467,0)
v4: Removing PWL point (0.00144785,0)
v4: Removing PWL point (0.001449,0)
v4: Removing PWL point (0.00145015,0)
v4: Removing PWL point (0.0014513,0)
v4: Removing PWL point (0.00145245,0)
v4: Removing PWL point (0.0014536,0)
v4: Removing PWL point (0.00145475,0)
v4: Removing PWL point (0.0014559,0)
v4: Removing PWL point (0.00145705,0)
v4: Removing PWL point (0.0014582,0)
v4: Removing PWL point (0.00145935,0)
v4: Removing PWL point (0.0014605,0)
v4: Removing PWL point (0.00146165,0)
v4: Removing PWL point (0.0014628,0)
v4: Removing PWL point (0.00146395,0)
v4: Removing PWL point (0.0014651,0)
v4: Removing PWL point (0.00146625,0)
v4: Removing PWL point (0.0014674,0)
v4: Removing PWL point (0.00146855,0)
v4: Removing PWL point (0.0014697,0)
v4: Removing PWL point (0.00147085,0)
v4: Removing PWL point (0.001472,0)
v4: Removing PWL point (0.00147315,0)
v4: Removing PWL point (0.0014743,0)
v4: Removing PWL point (0.00147545,0)
v4: Removing PWL point (0.0014766,0)
v4: Removing PWL point (0.00147775,0)
v4: Removing PWL point (0.0014789,0)
v4: Removing PWL point (0.00148005,0)
v4: Removing PWL point (0.0014812,0)
v4: Removing PWL point (0.00148235,0)
v4: Removing PWL point (0.0014835,0)
v4: Removing PWL point (0.00148465,0)
v4: Removing PWL point (0.0014858,0)
v4: Removing PWL point (0.00148695,0)
v4: Removing PWL point (0.0014881,0)
v4: Removing PWL point (0.00148925,0)
v4: Removing PWL point (0.0014904,0)
v4: Removing PWL point (0.00149155,0)
v4: Removing PWL point (0.0014927,0)
v4: Removing PWL point (0.00149385,0)
v4: Removing PWL point (0.001495,0)
v4: Removing PWL point (0.00149615,0)
v4: Removing PWL point (0.0014973,0)
v4: Removing PWL point (0.00149845,0)
v4: Removing PWL point (0.0014996,0)
v4: Removing PWL point (0.00150075,0)
v4: Removing PWL point (0.0015019,0)
v4: Removing PWL point (0.00150305,0)
v4: Removing PWL point (0.0015042,0)
v4: Removing PWL point (0.00150535,0)
v4: Removing PWL point (0.0015065,0)
v4: Removing PWL point (0.00150765,0)
v4: Removing PWL point (0.0015088,0)
v4: Removing PWL point (0.00150995,0)
v4: Removing PWL point (0.0015111,0)
v4: Removing PWL point (0.00151225,0)
v4: Removing PWL point (0.0015134,0)
v4: Removing PWL point (0.00151455,0)
v4: Removing PWL point (0.0015157,0)
v4: Removing PWL point (0.00151685,0)
v4: Removing PWL point (0.001518,0)
v4: Removing PWL point (0.00151915,0)
v4: Removing PWL point (0.0015203,0)
v4: Removing PWL point (0.00152145,0)
v4: Removing PWL point (0.0015226,0)
v4: Removing PWL point (0.00152375,0)
v4: Removing PWL point (0.0015249,0)
v4: Removing PWL point (0.00152605,0)
v4: Removing PWL point (0.0015272,0)
v4: Removing PWL point (0.0015295,0)
v4: Removing PWL point (0.00153065,0)
v4: Removing PWL point (0.0015318,0)
v4: Removing PWL point (0.00153295,0)
v4: Removing PWL point (0.0015341,0)
v4: Removing PWL point (0.00153525,0)
v4: Removing PWL point (0.0015364,0)
v4: Removing PWL point (0.00153755,0)
v4: Removing PWL point (0.0015387,0)
v4: Removing PWL point (0.00153985,0)
v4: Removing PWL point (0.001541,0)
v4: Removing PWL point (0.00154215,0)
v4: Removing PWL point (0.0015433,0)
v4: Removing PWL point (0.00154445,0)
v4: Removing PWL point (0.0015456,0)
v4: Removing PWL point (0.00154675,0)
v4: Removing PWL point (0.0015479,0)
v4: Removing PWL point (0.00154905,0)
v4: Removing PWL point (0.0015502,0)
v4: Removing PWL point (0.00155135,0)
v4: Removing PWL point (0.0015525,0)
v4: Removing PWL point (0.00155365,0)
v4: Removing PWL point (0.0015548,0)
v4: Removing PWL point (0.00155595,0)
v4: Removing PWL point (0.0015571,0)
v4: Removing PWL point (0.00155825,0)
v4: Removing PWL point (0.0015594,0)
v4: Removing PWL point (0.00156055,0)
v4: Removing PWL point (0.0015617,0)
v4: Removing PWL point (0.00156285,0)
v4: Removing PWL point (0.001564,0)
v4: Removing PWL point (0.00156515,0)
v4: Removing PWL point (0.0015663,0)
v4: Removing PWL point (0.00156745,0)
v4: Removing PWL point (0.0015686,0)
v4: Removing PWL point (0.00156975,0)
v4: Removing PWL point (0.0015709,0)
v4: Removing PWL point (0.00157205,0)
v4: Removing PWL point (0.0015732,0)
v4: Removing PWL point (0.00157435,0)
v4: Removing PWL point (0.0015755,0)
v4: Removing PWL point (0.00157665,0)
v4: Removing PWL point (0.0015778,0)
v4: Removing PWL point (0.00157895,0)
v4: Removing PWL point (0.0015801,0)
v4: Removing PWL point (0.00158125,0)
v4: Removing PWL point (0.0015824,0)
v4: Removing PWL point (0.00158355,0)
v4: Removing PWL point (0.0015847,0)
v4: Removing PWL point (0.00158585,0)
v4: Removing PWL point (0.001587,0)
v4: Removing PWL point (0.00158815,0)
v4: Removing PWL point (0.0015893,0)
v4: Removing PWL point (0.00159045,0)
v4: Removing PWL point (0.0015916,0)
v4: Removing PWL point (0.00159275,0)
v4: Removing PWL point (0.0015939,0)
v4: Removing PWL point (0.00159505,0)
v4: Removing PWL point (0.0015962,0)
v4: Removing PWL point (0.00159735,0)
v4: Removing PWL point (0.0015985,0)
v4: Removing PWL point (0.00159965,0)
v4: Removing PWL point (0.0016008,0)
v4: Removing PWL point (0.00160195,0)
v4: Removing PWL point (0.0016031,0)
v4: Removing PWL point (0.00160425,0)
v4: Removing PWL point (0.0016054,0)
v4: Removing PWL point (0.00160655,0)
v4: Removing PWL point (0.0016077,0)
v4: Removing PWL point (0.00160885,0)
v4: Removing PWL point (0.00161,0)
v4: Removing PWL point (0.00161115,0)
v4: Removing PWL point (0.0016123,0)
v4: Removing PWL point (0.00161345,0)
v4: Removing PWL point (0.0016146,0)
v4: Removing PWL point (0.00161575,0)
v4: Removing PWL point (0.0016169,0)
v4: Removing PWL point (0.00161805,0)
v4: Removing PWL point (0.0016192,0)
v4: Removing PWL point (0.00162035,0)
v4: Removing PWL point (0.0016215,0)
v4: Removing PWL point (0.00162265,0)
v4: Removing PWL point (0.0016238,0)
v4: Removing PWL point (0.00162495,0)
v4: Removing PWL point (0.0016261,0)
v4: Removing PWL point (0.00162725,0)
v4: Removing PWL point (0.0016284,0)
v4: Removing PWL point (0.00162955,0)
v4: Removing PWL point (0.0016307,0)
v4: Removing PWL point (0.00163185,0)
v4: Removing PWL point (0.001633,0)
v4: Removing PWL point (0.00163415,0)
v4: Removing PWL point (0.0016353,0)
v4: Removing PWL point (0.00163645,0)
v4: Removing PWL point (0.0016376,0)
v4: Removing PWL point (0.00163875,0)
v4: Removing PWL point (0.0016399,0)
v4: Removing PWL point (0.00164105,0)
v4: Removing PWL point (0.0016422,0)
v4: Removing PWL point (0.00164335,0)
v4: Removing PWL point (0.0016445,0)
v4: Removing PWL point (0.00164565,0)
v4: Removing PWL point (0.0016468,0)
v4: Removing PWL point (0.00164795,0)
v4: Removing PWL point (0.0016491,0)
v4: Removing PWL point (0.00165025,0)
v4: Removing PWL point (0.0016514,0)
v4: Removing PWL point (0.00165255,0)
v4: Removing PWL point (0.0016537,0)
v4: Removing PWL point (0.00165485,0)
v4: Removing PWL point (0.001656,0)
v4: Removing PWL point (0.00165715,0)
v4: Removing PWL point (0.0016583,0)
v4: Removing PWL point (0.00165945,0)
v4: Removing PWL point (0.0016606,0)
v4: Removing PWL point (0.00166175,0)
v4: Removing PWL point (0.0016629,0)
v4: Removing PWL point (0.0016652,0)
v4: Removing PWL point (0.0016675,0)
v4: Removing PWL point (0.00166865,0)
v4: Removing PWL point (0.0016698,0)
v4: Removing PWL point (0.00167095,0)
v4: Removing PWL point (0.0016721,0)
v4: Removing PWL point (0.00167325,0)
v4: Removing PWL point (0.0016744,0)
v4: Removing PWL point (0.00167555,0)
v4: Removing PWL point (0.0016767,0)
v4: Removing PWL point (0.00167785,0)
v4: Removing PWL point (0.001679,0)
v4: Removing PWL point (0.00168015,0)
v4: Removing PWL point (0.0016813,0)
v4: Removing PWL point (0.00168245,0)
v4: Removing PWL point (0.0016836,0)
v4: Removing PWL point (0.00168475,0)
v4: Removing PWL point (0.0016859,0)
v4: Removing PWL point (0.00168705,0)
v4: Removing PWL point (0.0016882,0)
v4: Removing PWL point (0.00168935,0)
v4: Removing PWL point (0.0016905,0)
v4: Removing PWL point (0.00169165,0)
v4: Removing PWL point (0.0016928,0)
v4: Removing PWL point (0.00169395,0)
v4: Removing PWL point (0.0016951,0)
v4: Removing PWL point (0.00169625,0)
v4: Removing PWL point (0.0016974,0)
v4: Removing PWL point (0.00169855,0)
v4: Removing PWL point (0.0016997,0)
v4: Removing PWL point (0.00170085,0)
v4: Removing PWL point (0.001702,0)
v4: Removing PWL point (0.00170315,0)
v4: Removing PWL point (0.0017043,0)
v4: Removing PWL point (0.00170545,0)
v4: Removing PWL point (0.0017066,0)
v4: Removing PWL point (0.00170775,0)
v4: Removing PWL point (0.0017089,0)
v4: Removing PWL point (0.00171005,0)
v4: Removing PWL point (0.0017112,0)
v4: Removing PWL point (0.00171235,0)
v4: Removing PWL point (0.0017135,0)
v4: Removing PWL point (0.00171465,0)
v4: Removing PWL point (0.0017158,0)
v4: Removing PWL point (0.00171695,0)
v4: Removing PWL point (0.0017181,0)
v4: Removing PWL point (0.00171925,0)
v4: Removing PWL point (0.00172155,0)
v4: Removing PWL point (0.0017227,0)
v4: Removing PWL point (0.00172385,0)
v4: Removing PWL point (0.001725,0)
v4: Removing PWL point (0.00172615,0)
v4: Removing PWL point (0.0017273,0)
v4: Removing PWL point (0.00172845,0)
v4: Removing PWL point (0.0017296,0)
v4: Removing PWL point (0.00173075,0)
v4: Removing PWL point (0.0017319,0)
v4: Removing PWL point (0.00173305,0)
v4: Removing PWL point (0.0017342,0)
v4: Removing PWL point (0.00173535,0)
v4: Removing PWL point (0.0017365,0)
v4: Removing PWL point (0.00173765,0)
v4: Removing PWL point (0.0017388,0)
v4: Removing PWL point (0.00173995,0)
v4: Removing PWL point (0.0017411,0)
v4: Removing PWL point (0.00174225,0)
v4: Removing PWL point (0.0017434,0)
v4: Removing PWL point (0.00174455,0)
v4: Removing PWL point (0.0017457,0)
v4: Removing PWL point (0.00174685,0)
v4: Removing PWL point (0.001748,0)
v4: Removing PWL point (0.00174915,0)
v4: Removing PWL point (0.0017503,0)
v4: Removing PWL point (0.00175145,0)
v4: Removing PWL point (0.0017526,0)
v4: Removing PWL point (0.00175375,0)
v4: Removing PWL point (0.0017549,0)
v4: Removing PWL point (0.00175605,0)
v4: Removing PWL point (0.0017572,0)
v4: Removing PWL point (0.00175835,0)
v4: Removing PWL point (0.0017595,0)
v4: Removing PWL point (0.00176065,0)
v4: Removing PWL point (0.0017618,0)
v4: Removing PWL point (0.00176295,0)
v4: Removing PWL point (0.0017641,0)
v4: Removing PWL point (0.00176525,0)
v4: Removing PWL point (0.0017664,0)
v4: Removing PWL point (0.00176755,0)
v4: Removing PWL point (0.0017687,0)
v4: Removing PWL point (0.00176985,0)
v4: Removing PWL point (0.001771,0)
v4: Removing PWL point (0.00177215,0)
v4: Removing PWL point (0.0017733,0)
v4: Removing PWL point (0.00177445,0)
v4: Removing PWL point (0.0017756,0)
v4: Removing PWL point (0.00177675,0)
v4: Removing PWL point (0.0017779,0)
v4: Removing PWL point (0.00177905,0)
v4: Removing PWL point (0.0017802,0)
v4: Removing PWL point (0.00178135,0)
v4: Removing PWL point (0.0017825,0)
v4: Removing PWL point (0.00178365,0)
v4: Removing PWL point (0.0017848,0)
v4: Removing PWL point (0.00178595,0)
v4: Removing PWL point (0.0017871,0)
v4: Removing PWL point (0.00178825,0)
v4: Removing PWL point (0.0017894,0)
v4: Removing PWL point (0.00179055,0)
v4: Removing PWL point (0.0017917,0)
v4: Removing PWL point (0.00179285,0)
v4: Removing PWL point (0.001794,0)
v4: Removing PWL point (0.00179515,0)
v4: Removing PWL point (0.0017963,0)
v4: Removing PWL point (0.00179745,0)
v4: Removing PWL point (0.0017986,0)
v4: Removing PWL point (0.00179975,0)
v4: Removing PWL point (0.0018009,0)
v4: Removing PWL point (0.00180205,0)
v4: Removing PWL point (0.0018032,0)
v4: Removing PWL point (0.00180435,0)
v4: Removing PWL point (0.0018055,0)
v4: Removing PWL point (0.0018078,0)
v4: Removing PWL point (0.00180895,0)
v4: Removing PWL point (0.0018101,0)
v4: Removing PWL point (0.00181125,0)
v4: Removing PWL point (0.0018124,0)
v4: Removing PWL point (0.00181355,0)
v4: Removing PWL point (0.0018147,0)
v4: Removing PWL point (0.00181585,0)
v4: Removing PWL point (0.001817,0)
v4: Removing PWL point (0.00181815,0)
v4: Removing PWL point (0.0018193,0)
v4: Removing PWL point (0.00182045,0)
v4: Removing PWL point (0.0018216,0)
v4: Removing PWL point (0.00182275,0)
v4: Removing PWL point (0.0018239,0)
v4: Removing PWL point (0.00182505,0)
v4: Removing PWL point (0.0018262,0)
v4: Removing PWL point (0.00182735,0)
v4: Removing PWL point (0.0018285,0)
v4: Removing PWL point (0.00182965,0)
v4: Removing PWL point (0.0018308,0)
v4: Removing PWL point (0.00183195,0)
v4: Removing PWL point (0.0018331,0)
v4: Removing PWL point (0.00183425,0)
v4: Removing PWL point (0.0018354,0)
v4: Removing PWL point (0.00183655,0)
v4: Removing PWL point (0.0018377,0)
v4: Removing PWL point (0.00183885,0)
v4: Removing PWL point (0.00184,0)
v4: Removing PWL point (0.00184115,0)
v4: Removing PWL point (0.0018423,0)
v4: Removing PWL point (0.00184345,0)
v4: Removing PWL point (0.0018446,0)
v4: Removing PWL point (0.00184575,0)
v4: Removing PWL point (0.0018469,0)
v4: Removing PWL point (0.00184805,0)
v4: Removing PWL point (0.0018492,0)
v4: Removing PWL point (0.00185035,0)
v4: Removing PWL point (0.0018515,0)
v4: Removing PWL point (0.00185265,0)
v4: Removing PWL point (0.0018538,0)
v4: Removing PWL point (0.00185495,0)
v4: Removing PWL point (0.0018561,0)
v4: Removing PWL point (0.0018584,0)
v4: Removing PWL point (0.00185955,0)
v4: Removing PWL point (0.0018607,0)
v4: Removing PWL point (0.00186185,0)
v4: Removing PWL point (0.001863,0)
v4: Removing PWL point (0.00186415,0)
v4: Removing PWL point (0.0018653,0)
v4: Removing PWL point (0.00186645,0)
v4: Removing PWL point (0.0018676,0)
v4: Removing PWL point (0.00186875,0)
v4: Removing PWL point (0.0018699,0)
v4: Removing PWL point (0.00187105,0)
v4: Removing PWL point (0.0018722,0)
v4: Removing PWL point (0.00187335,0)
v4: Removing PWL point (0.0018745,0)
v4: Removing PWL point (0.00187565,0)
v4: Removing PWL point (0.0018768,0)
v4: Removing PWL point (0.0018791,0)
v4: Removing PWL point (0.00188025,0)
v4: Removing PWL point (0.0018814,0)
v4: Removing PWL point (0.00188255,0)
v4: Removing PWL point (0.0018837,0)
v4: Removing PWL point (0.00188485,0)
v4: Removing PWL point (0.001886,0)
v4: Removing PWL point (0.00188715,0)
v4: Removing PWL point (0.0018883,0)
v4: Removing PWL point (0.00188945,0)
v4: Removing PWL point (0.0018906,0)
v4: Removing PWL point (0.00189175,0)
v4: Removing PWL point (0.0018929,0)
v4: Removing PWL point (0.00189405,0)
v4: Removing PWL point (0.0018952,0)
v4: Removing PWL point (0.00189635,0)
v4: Removing PWL point (0.0018975,0)
v4: Removing PWL point (0.00189865,0)
v4: Removing PWL point (0.0018998,0)
v4: Removing PWL point (0.00190095,0)
v4: Removing PWL point (0.0019021,0)
v4: Removing PWL point (0.00190325,0)
v4: Removing PWL point (0.0019044,0)
v4: Removing PWL point (0.00190555,0)
v4: Removing PWL point (0.0019067,0)
v4: Removing PWL point (0.00190785,0)
v4: Removing PWL point (0.001909,0)
v4: Removing PWL point (0.00191015,0)
v4: Removing PWL point (0.0019113,0)
v4: Removing PWL point (0.00191245,0)
v4: Removing PWL point (0.0019136,0)
v4: Removing PWL point (0.00191475,0)
v4: Removing PWL point (0.0019159,0)
v4: Removing PWL point (0.00191705,0)
v4: Removing PWL point (0.0019182,0)
v4: Removing PWL point (0.00191935,0)
v4: Removing PWL point (0.0019205,0)
v4: Removing PWL point (0.00192165,0)
v4: Removing PWL point (0.0019228,0)
v4: Removing PWL point (0.00192395,0)
v4: Removing PWL point (0.0019251,0)
v4: Removing PWL point (0.00192625,0)
v4: Removing PWL point (0.0019274,0)
v4: Removing PWL point (0.00192855,0)
v4: Removing PWL point (0.0019297,0)
v4: Removing PWL point (0.00193085,0)
v4: Removing PWL point (0.001932,0)
v4: Removing PWL point (0.00193315,0)
v4: Removing PWL point (0.0019343,0)
v4: Removing PWL point (0.00193545,0)
v4: Removing PWL point (0.0019366,0)
v4: Removing PWL point (0.00193775,0)
v4: Removing PWL point (0.0019389,0)
v4: Removing PWL point (0.00194005,0)
v4: Removing PWL point (0.0019412,0)
v4: Removing PWL point (0.00194235,0)
v4: Removing PWL point (0.0019435,0)
v4: Removing PWL point (0.00194465,0)
v4: Removing PWL point (0.0019458,0)
v4: Removing PWL point (0.00194695,0)
v4: Removing PWL point (0.0019481,0)
v4: Removing PWL point (0.00194925,0)
v4: Removing PWL point (0.0019504,0)
v4: Removing PWL point (0.00195155,0)
v4: Removing PWL point (0.0019527,0)
v4: Removing PWL point (0.00195385,0)
v4: Removing PWL point (0.001955,0)
v4: Removing PWL point (0.00195615,0)
v4: Removing PWL point (0.0019573,0)
v4: Removing PWL point (0.00195845,0)
v4: Removing PWL point (0.0019596,0)
v4: Removing PWL point (0.00196075,0)
v4: Removing PWL point (0.0019619,0)
v4: Removing PWL point (0.00196305,0)
v4: Removing PWL point (0.0019642,0)
v4: Removing PWL point (0.00196535,0)
v4: Removing PWL point (0.0019665,0)
v4: Removing PWL point (0.00196765,0)
v4: Removing PWL point (0.00196995,0)
v4: Removing PWL point (0.0019711,0)
v4: Removing PWL point (0.00197225,0)
v4: Removing PWL point (0.0019734,0)
v4: Removing PWL point (0.00197455,0)
v4: Removing PWL point (0.0019757,0)
v4: Removing PWL point (0.00197685,0)
v4: Removing PWL point (0.001978,0)
v4: Removing PWL point (0.00197915,0)
v4: Removing PWL point (0.0019803,0)
v4: Removing PWL point (0.00198145,0)
v4: Removing PWL point (0.0019826,0)
v4: Removing PWL point (0.00198375,0)
v4: Removing PWL point (0.0019849,0)
v4: Removing PWL point (0.00198605,0)
v4: Removing PWL point (0.0019872,0)
v4: Removing PWL point (0.00198835,0)
v4: Removing PWL point (0.0019895,0)
v4: Removing PWL point (0.00199065,0)
v4: Removing PWL point (0.0019918,0)
v4: Removing PWL point (0.00199295,0)
v4: Removing PWL point (0.0019941,0)
v4: Removing PWL point (0.00199525,0)
v4: Removing PWL point (0.0019964,0)
v4: Removing PWL point (0.00199755,0)
v4: Removing PWL point (0.0019987,0)
v4: Removing PWL point (0.00199985,0)
v4: Removing PWL point (0.002001,0)
v4: Removing PWL point (0.00200215,0)
v4: Removing PWL point (0.0020033,0)
v4: Removing PWL point (0.00200445,0)
v4: Removing PWL point (0.0020056,0)
v4: Removing PWL point (0.00200675,0)
v4: Removing PWL point (0.0020079,0)
v4: Removing PWL point (0.00200905,0)
v4: Removing PWL point (0.0020102,0)
v4: Removing PWL point (0.00201135,0)
v4: Removing PWL point (0.0020125,0)
v4: Removing PWL point (0.00201365,0)
v4: Removing PWL point (0.0020148,0)
v4: Removing PWL point (0.00201595,0)
v4: Removing PWL point (0.0020171,0)
v4: Removing PWL point (0.00201825,0)
v4: Removing PWL point (0.0020194,0)
v4: Removing PWL point (0.00202055,0)
v4: Removing PWL point (0.0020217,0)
v4: Removing PWL point (0.00202285,0)
v4: Removing PWL point (0.002024,0)
v4: Removing PWL point (0.00202515,0)
v4: Removing PWL point (0.0020263,0)
v4: Removing PWL point (0.00202745,0)
v4: Removing PWL point (0.0020286,0)
v4: Removing PWL point (0.00202975,0)
v4: Removing PWL point (0.0020309,0)
v4: Removing PWL point (0.00203205,0)
v4: Removing PWL point (0.0020332,0)
v4: Removing PWL point (0.00203435,0)
v4: Removing PWL point (0.0020355,0)
v4: Removing PWL point (0.00203665,0)
v4: Removing PWL point (0.0020378,0)
v4: Removing PWL point (0.00203895,0)
v4: Removing PWL point (0.0020401,0)
v4: Removing PWL point (0.00204125,0)
v4: Removing PWL point (0.0020424,0)
v4: Removing PWL point (0.00204355,0)
v4: Removing PWL point (0.0020447,0)
v4: Removing PWL point (0.00204585,0)
v4: Removing PWL point (0.002047,0)
v4: Removing PWL point (0.00204815,0)
v4: Removing PWL point (0.0020493,0)
v4: Removing PWL point (0.00205045,0)
v4: Removing PWL point (0.0020516,0)
v4: Removing PWL point (0.00205275,0)
v4: Removing PWL point (0.0020539,0)
v4: Removing PWL point (0.00205505,0)
v4: Removing PWL point (0.0020562,0)
v4: Removing PWL point (0.00205735,0)
v4: Removing PWL point (0.0020585,0)
v4: Removing PWL point (0.00205965,0)
v4: Removing PWL point (0.0020608,0)
v4: Removing PWL point (0.00206195,0)
v4: Removing PWL point (0.0020631,0)
v4: Removing PWL point (0.00206425,0)
v4: Removing PWL point (0.0020654,0)
v4: Removing PWL point (0.00206655,0)
v4: Removing PWL point (0.0020677,0)
v4: Removing PWL point (0.00206885,0)
v4: Removing PWL point (0.00207,0)
v4: Removing PWL point (0.00207115,0)
v4: Removing PWL point (0.0020723,0)
v4: Removing PWL point (0.00207345,0)
v4: Removing PWL point (0.0020746,0)
v4: Removing PWL point (0.00207575,0)
v4: Removing PWL point (0.0020769,0)
v4: Removing PWL point (0.00207805,0)
v4: Removing PWL point (0.0020792,0)
v4: Removing PWL point (0.00208035,0)
v4: Removing PWL point (0.0020815,0)
v4: Removing PWL point (0.00208265,0)
v4: Removing PWL point (0.0020838,0)
v4: Removing PWL point (0.00208495,0)
v4: Removing PWL point (0.0020861,0)
v4: Removing PWL point (0.00208725,0)
v4: Removing PWL point (0.0020884,0)
v4: Removing PWL point (0.00208955,0)
v4: Removing PWL point (0.0020907,0)
v4: Removing PWL point (0.00209185,0)
v4: Removing PWL point (0.002093,0)
v4: Removing PWL point (0.00209415,0)
v4: Removing PWL point (0.0020953,0)
v4: Removing PWL point (0.00209645,0)
v4: Removing PWL point (0.0020976,0)
v4: Removing PWL point (0.00209875,0)
v4: Removing PWL point (0.0020999,0)
v4: Removing PWL point (0.00210105,0)
v4: Removing PWL point (0.0021022,0)
v4: Removing PWL point (0.00210335,0)
v4: Removing PWL point (0.0021045,0)
v4: Removing PWL point (0.00210565,0)
v4: Removing PWL point (0.0021068,0)
v4: Removing PWL point (0.00210795,0)
v4: Removing PWL point (0.0021091,0)
v4: Removing PWL point (0.00211025,0)
v4: Removing PWL point (0.0021114,0)
v4: Removing PWL point (0.00211255,0)
v4: Removing PWL point (0.0021137,0)
v4: Removing PWL point (0.00211485,0)
v4: Removing PWL point (0.002116,0)
v4: Removing PWL point (0.00211715,0)
v4: Removing PWL point (0.0021183,0)
v4: Removing PWL point (0.00211945,0)
v4: Removing PWL point (0.0021206,0)
v4: Removing PWL point (0.00212175,0)
v4: Removing PWL point (0.0021229,0)
v4: Removing PWL point (0.00212405,0)
v4: Removing PWL point (0.0021252,0)
v4: Removing PWL point (0.00212635,0)
v4: Removing PWL point (0.0021275,0)
v4: Removing PWL point (0.00212865,0)
v4: Removing PWL point (0.0021298,0)
v4: Removing PWL point (0.00213095,0)
v4: Removing PWL point (0.0021321,0)
v4: Removing PWL point (0.00213325,0)
v4: Removing PWL point (0.0021344,0)
v4: Removing PWL point (0.00213555,0)
v4: Removing PWL point (0.0021367,0)
v4: Removing PWL point (0.00213785,0)
v4: Removing PWL point (0.002139,0)
v4: Removing PWL point (0.00214015,0)
v4: Removing PWL point (0.0021413,0)
v4: Removing PWL point (0.00214245,0)
v4: Removing PWL point (0.0021436,0)
v4: Removing PWL point (0.00214475,0)
v4: Removing PWL point (0.0021459,0)
v4: Removing PWL point (0.00214705,0)
v4: Removing PWL point (0.0021482,0)
v4: Removing PWL point (0.00214935,0)
v4: Removing PWL point (0.0021505,0)
v4: Removing PWL point (0.00215165,0)
v4: Removing PWL point (0.0021528,0)
v4: Removing PWL point (0.00215395,0)
v4: Removing PWL point (0.0021551,0)
v4: Removing PWL point (0.00215625,0)
v4: Removing PWL point (0.0021574,0)
v4: Removing PWL point (0.00215855,0)
v4: Removing PWL point (0.0021597,0)
v4: Removing PWL point (0.00216085,0)
v4: Removing PWL point (0.002162,0)
v4: Removing PWL point (0.00216315,0)
v4: Removing PWL point (0.0021643,0)
v4: Removing PWL point (0.00216545,0)
v4: Removing PWL point (0.0021666,0)
v4: Removing PWL point (0.00216775,0)
v4: Removing PWL point (0.0021689,0)
v4: Removing PWL point (0.00217005,0)
v4: Removing PWL point (0.0021712,0)
v4: Removing PWL point (0.00217235,0)
v4: Removing PWL point (0.0021735,0)
v4: Removing PWL point (0.00217465,0)
v4: Removing PWL point (0.0021758,0)
v4: Removing PWL point (0.00217695,0)
v4: Removing PWL point (0.0021781,0)
v4: Removing PWL point (0.00217925,0)
v4: Removing PWL point (0.0021804,0)
v4: Removing PWL point (0.00218155,0)
v4: Removing PWL point (0.0021827,0)
v4: Removing PWL point (0.00218385,0)
v4: Removing PWL point (0.002185,0)
v4: Removing PWL point (0.00218615,0)
v4: Removing PWL point (0.0021873,0)
v4: Removing PWL point (0.00218845,0)
v4: Removing PWL point (0.0021896,0)
v4: Removing PWL point (0.00219075,0)
v4: Removing PWL point (0.0021919,0)
v4: Removing PWL point (0.00219305,0)
v4: Removing PWL point (0.0021942,0)
v4: Removing PWL point (0.00219535,0)
v4: Removing PWL point (0.0021965,0)
v4: Removing PWL point (0.00219765,0)
v4: Removing PWL point (0.0021988,0)
v4: Removing PWL point (0.00219995,0)
v4: Removing PWL point (0.0022011,0)
v4: Removing PWL point (0.00220225,0)
v4: Removing PWL point (0.0022034,0)
v4: Removing PWL point (0.00220455,0)
v4: Removing PWL point (0.0022057,0)
v4: Removing PWL point (0.00220685,0)
v4: Removing PWL point (0.002208,0)
v4: Removing PWL point (0.00220915,0)
v4: Removing PWL point (0.0022103,0)
v4: Removing PWL point (0.00221145,0)
v4: Removing PWL point (0.0022126,0)
v4: Removing PWL point (0.00221375,0)
v4: Removing PWL point (0.0022149,0)
v4: Removing PWL point (0.00221605,0)
v4: Removing PWL point (0.0022172,0)
v4: Removing PWL point (0.00221835,0)
v4: Removing PWL point (0.0022195,0)
v4: Removing PWL point (0.00222065,0)
v4: Removing PWL point (0.0022218,0)
v4: Removing PWL point (0.00222295,0)
v4: Removing PWL point (0.0022241,0)
v4: Removing PWL point (0.00222525,0)
v4: Removing PWL point (0.0022264,0)
v4: Removing PWL point (0.00222755,0)
v4: Removing PWL point (0.0022287,0)
v4: Removing PWL point (0.00222985,0)
v4: Removing PWL point (0.002231,0)
v4: Removing PWL point (0.00223215,0)
v4: Removing PWL point (0.0022333,0)
v4: Removing PWL point (0.00223445,0)
v4: Removing PWL point (0.0022356,0)
v4: Removing PWL point (0.00223675,0)
v4: Removing PWL point (0.0022379,0)
v4: Removing PWL point (0.00223905,0)
v4: Removing PWL point (0.0022402,0)
v4: Removing PWL point (0.00224135,0)
v4: Removing PWL point (0.0022425,0)
v4: Removing PWL point (0.00224365,0)
v4: Removing PWL point (0.0022448,0)
v4: Removing PWL point (0.00224595,0)
v4: Removing PWL point (0.00224825,0)
v4: Removing PWL point (0.0022494,0)
v4: Removing PWL point (0.00225055,0)
v4: Removing PWL point (0.0022517,0)
v4: Removing PWL point (0.00225285,0)
v4: Removing PWL point (0.002254,0)
v4: Removing PWL point (0.00225515,0)
v4: Removing PWL point (0.0022563,0)
v4: Removing PWL point (0.00225745,0)
v4: Removing PWL point (0.0022586,0)
v4: Removing PWL point (0.00225975,0)
v4: Removing PWL point (0.0022609,0)
v4: Removing PWL point (0.00226205,0)
v4: Removing PWL point (0.0022632,0)
v4: Removing PWL point (0.00226435,0)
v4: Removing PWL point (0.0022655,0)
v4: Removing PWL point (0.00226665,0)
v4: Removing PWL point (0.0022678,0)
v4: Removing PWL point (0.00226895,0)
v4: Removing PWL point (0.0022701,0)
v4: Removing PWL point (0.00227125,0)
v4: Removing PWL point (0.0022724,0)
v4: Removing PWL point (0.00227355,0)
v4: Removing PWL point (0.0022747,0)
v4: Removing PWL point (0.00227585,0)
v4: Removing PWL point (0.00227815,0)
v4: Removing PWL point (0.0022793,0)
v4: Removing PWL point (0.00228045,0)
v4: Removing PWL point (0.0022816,0)
v4: Removing PWL point (0.00228275,0)
v4: Removing PWL point (0.0022839,0)
v4: Removing PWL point (0.00228505,0)
v4: Removing PWL point (0.0022862,0)
v4: Removing PWL point (0.00228735,0)
v4: Removing PWL point (0.0022885,0)
v4: Removing PWL point (0.00228965,0)
v4: Removing PWL point (0.0022908,0)
v4: Removing PWL point (0.00229195,0)
v4: Removing PWL point (0.0022931,0)
v4: Removing PWL point (0.00229425,0)
v4: Removing PWL point (0.0022954,0)
v4: Removing PWL point (0.00229655,0)
v4: Removing PWL point (0.0022977,0)
v4: Removing PWL point (0.00229885,0)
v4: Removing PWL point (0.0023,0)
v4: Removing PWL point (0.00230115,0)
v4: Removing PWL point (0.0023023,0)
v4: Removing PWL point (0.00230345,0)
v4: Removing PWL point (0.0023046,0)
v4: Removing PWL point (0.00230575,0)
v4: Removing PWL point (0.0023069,0)
v4: Removing PWL point (0.00230805,0)
v4: Removing PWL point (0.0023092,0)
v4: Removing PWL point (0.00231035,0)
v4: Removing PWL point (0.0023115,0)
v4: Removing PWL point (0.00231265,0)
v4: Removing PWL point (0.0023138,0)
v4: Removing PWL point (0.00231495,0)
v4: Removing PWL point (0.0023161,0)
v4: Removing PWL point (0.00231725,0)
v4: Removing PWL point (0.0023184,0)
v4: Removing PWL point (0.00231955,0)
v4: Removing PWL point (0.0023207,0)
v4: Removing PWL point (0.00232185,0)
v4: Removing PWL point (0.002323,0)
v4: Removing PWL point (0.00232415,0)
v4: Removing PWL point (0.0023253,0)
v4: Removing PWL point (0.00232645,0)
v4: Removing PWL point (0.0023276,0)
v4: Removing PWL point (0.00232875,0)
v4: Removing PWL point (0.0023299,0)
v4: Removing PWL point (0.00233105,0)
v4: Removing PWL point (0.0023322,0)
v4: Removing PWL point (0.00233335,0)
v4: Removing PWL point (0.0023345,0)
v4: Removing PWL point (0.00233565,0)
v4: Removing PWL point (0.0023368,0)
v4: Removing PWL point (0.00233795,0)
v4: Removing PWL point (0.0023391,0)
v4: Removing PWL point (0.00234025,0)
v4: Removing PWL point (0.0023414,0)
v4: Removing PWL point (0.00234255,0)
v4: Removing PWL point (0.0023437,0)
v4: Removing PWL point (0.00234485,0)
v4: Removing PWL point (0.002346,0)
v4: Removing PWL point (0.00234715,0)
v4: Removing PWL point (0.0023483,0)
v4: Removing PWL point (0.00234945,0)
v4: Removing PWL point (0.0023506,0)
v4: Removing PWL point (0.00235175,0)
v4: Removing PWL point (0.0023529,0)
v4: Removing PWL point (0.00235405,0)
v4: Removing PWL point (0.0023552,0)
v4: Removing PWL point (0.00235635,0)
v4: Removing PWL point (0.0023575,0)
v4: Removing PWL point (0.00235865,0)
v4: Removing PWL point (0.0023598,0)
v4: Removing PWL point (0.00236095,0)
v4: Removing PWL point (0.0023621,0)
v4: Removing PWL point (0.00236325,0)
v4: Removing PWL point (0.0023644,0)
v4: Removing PWL point (0.00236555,0)
v4: Removing PWL point (0.0023667,0)
v4: Removing PWL point (0.00236785,0)
v4: Removing PWL point (0.002369,0)
v4: Removing PWL point (0.00237015,0)
v4: Removing PWL point (0.0023713,0)
v4: Removing PWL point (0.00237245,0)
v4: Removing PWL point (0.0023736,0)
v4: Removing PWL point (0.00237475,0)
v4: Removing PWL point (0.0023759,0)
v4: Removing PWL point (0.00237705,0)
v4: Removing PWL point (0.0023782,0)
v4: Removing PWL point (0.00237935,0)
v4: Removing PWL point (0.0023805,0)
v4: Removing PWL point (0.00238165,0)
v4: Removing PWL point (0.0023828,0)
v4: Removing PWL point (0.00238395,0)
v4: Removing PWL point (0.0023851,0)
v4: Removing PWL point (0.00238625,0)
v4: Removing PWL point (0.0023874,0)
v4: Removing PWL point (0.00238855,0)
v4: Removing PWL point (0.0023897,0)
v4: Removing PWL point (0.00239085,0)
v4: Removing PWL point (0.002392,0)
v4: Removing PWL point (0.00239315,0)
v4: Removing PWL point (0.0023943,0)
v4: Removing PWL point (0.00239545,0)
v4: Removing PWL point (0.0023966,0)
v4: Removing PWL point (0.00239775,0)
v4: Removing PWL point (0.0023989,0)
v4: Removing PWL point (0.00240005,0)
v4: Removing PWL point (0.0024012,0)
v4: Removing PWL point (0.00240235,0)
v4: Removing PWL point (0.0024035,0)
v4: Removing PWL point (0.00240465,0)
v4: Removing PWL point (0.0024058,0)
v4: Removing PWL point (0.00240695,0)
v4: Removing PWL point (0.0024081,0)
v4: Removing PWL point (0.00240925,0)
v4: Removing PWL point (0.0024104,0)
v4: Removing PWL point (0.00241155,0)
v4: Removing PWL point (0.0024127,0)
v4: Removing PWL point (0.00241385,0)
v4: Removing PWL point (0.002415,0)
v4: Removing PWL point (0.00241615,0)
v4: Removing PWL point (0.0024173,0)
v4: Removing PWL point (0.00241845,0)
v4: Removing PWL point (0.0024196,0)
v4: Removing PWL point (0.00242075,0)
v4: Removing PWL point (0.0024219,0)
v4: Removing PWL point (0.00242305,0)
v4: Removing PWL point (0.0024242,0)
v4: Removing PWL point (0.00242535,0)
v4: Removing PWL point (0.0024265,0)
v4: Removing PWL point (0.00242765,0)
v4: Removing PWL point (0.0024288,0)
v4: Removing PWL point (0.00242995,0)
v4: Removing PWL point (0.0024311,0)
v4: Removing PWL point (0.00243225,0)
v4: Removing PWL point (0.0024334,0)
v4: Removing PWL point (0.00243455,0)
v4: Removing PWL point (0.0024357,0)
v4: Removing PWL point (0.00243685,0)
v4: Removing PWL point (0.002438,0)
v4: Removing PWL point (0.00243915,0)
v4: Removing PWL point (0.0024403,0)
v4: Removing PWL point (0.0024426,0)
v4: Removing PWL point (0.00244375,0)
v4: Removing PWL point (0.0024449,0)
v4: Removing PWL point (0.00244605,0)
v4: Removing PWL point (0.0024472,0)
v4: Removing PWL point (0.00244835,0)
v4: Removing PWL point (0.0024495,0)
v4: Removing PWL point (0.00245065,0)
v4: Removing PWL point (0.0024518,0)
v4: Removing PWL point (0.00245295,0)
v4: Removing PWL point (0.0024541,0)
v4: Removing PWL point (0.00245525,0)
v4: Removing PWL point (0.0024564,0)
v4: Removing PWL point (0.00245755,0)
v4: Removing PWL point (0.0024587,0)
v4: Removing PWL point (0.00245985,0)
v4: Removing PWL point (0.002461,0)
v4: Removing PWL point (0.00246215,0)
v4: Removing PWL point (0.0024633,0)
v4: Removing PWL point (0.00246445,0)
v4: Removing PWL point (0.0024656,0)
v4: Removing PWL point (0.00246675,0)
v4: Removing PWL point (0.0024679,0)
[...]
v4: Removing PWL point (0.0039859,0)
v4: Removing PWL point (0.00398705,0)
v4: Removing PWL point (0.0039882,0)
v4: Removing PWL point (0.00398935,0)
v4: Removing PWL point (0.0039905,0)
v4: Removing PWL point (0.00399165,0)
v4: Removing PWL point (0.0039928,0)
v4: Removing PWL point (0.00399395,0)
v4: Removing PWL point (0.0039951,0)
v4: Removing PWL point (0.00399625,0)
v4: Removing PWL point (0.0039974,0)
v4: Removing PWL point (0.00399855,0)
v4: Removing PWL point (0.0039997,0)
v4: Removing PWL point (0.00400085,0)
v4: Removing PWL point (0.004002,0)
v4: Removing PWL point (0.00400315,0)
v4: Removing PWL point (0.0040043,0)
v4: Removing PWL point (0.00400545,0)
v4: Removing PWL point (0.0040066,0)
v4: Removing PWL point (0.00400775,0)
v4: Removing PWL point (0.0040089,0)
v4: Removing PWL point (0.00401005,0)
v4: Removing PWL point (0.0040112,0)
v4: Removing PWL point (0.00401235,0)
v4: Removing PWL point (0.0040135,0)
v4: Removing PWL point (0.00401465,0)
v4: Removing PWL point (0.0040158,0)
v4: Removing PWL point (0.00401695,0)
v4: Removing PWL point (0.0040181,0)
v4: Removing PWL point (0.00401925,0)
v4: Removing PWL point (0.0040204,0)
v4: Removing PWL point (0.00402155,0)
v4: Removing PWL point (0.0040227,0)
v4: Removing PWL point (0.00402385,0)
v4: Removing PWL point (0.004025,0)
v4: Removing PWL point (0.00402615,0)
v4: Removing PWL point (0.0040273,0)
v4: Removing PWL point (0.00402845,0)
v4: Removing PWL point (0.0040296,0)
v4: Removing PWL point (0.00403075,0)
v4: Removing PWL point (0.0040319,0)
v4: Removing PWL point (0.00403305,0)
v4: Removing PWL point (0.0040342,0)
v4: Removing PWL point (0.00403535,0)
v4: Removing PWL point (0.0040365,0)
v4: Removing PWL point (0.00403765,0)
v4: Removing PWL point (0.0040388,0)
v4: Removing PWL point (0.00403995,0)
v4: Removing PWL point (0.0040411,0)
v4: Removing PWL point (0.00404225,0)
v4: Removing PWL point (0.0040434,0)
v4: Removing PWL point (0.00404455,0)
v4: Removing PWL point (0.0040457,0)
v4: Removing PWL point (0.00404685,0)
v4: Removing PWL point (0.004048,0)
v4: Removing PWL point (0.00404915,0)
v4: Removing PWL point (0.0040503,0)
v4: Removing PWL point (0.00405145,0)
v4: Removing PWL point (0.0040526,0)
v4: Removing PWL point (0.00405375,0)
v4: Removing PWL point (0.0040549,0)
v4: Removing PWL point (0.00405605,0)
v4: Removing PWL point (0.0040572,0)
v4: Removing PWL point (0.00405835,0)
v4: Removing PWL point (0.0040595,0)
v4: Removing PWL point (0.00406065,0)
v4: Removing PWL point (0.0040618,0)
v4: Removing PWL point (0.00406295,0)
v4: Removing PWL point (0.0040641,0)
v4: Removing PWL point (0.00406525,0)
v4: Removing PWL point (0.0040664,0)
v4: Removing PWL point (0.00406755,0)
v4: Removing PWL point (0.0040687,0)
v4: Removing PWL point (0.00406985,0)
v4: Removing PWL point (0.004071,0)
v4: Removing PWL point (0.00407215,0)
v4: Removing PWL point (0.0040733,0)
v4: Removing PWL point (0.00407445,0)
v4: Removing PWL point (0.0040756,0)
v4: Removing PWL point (0.00407675,0)
v4: Removing PWL point (0.0040779,0)
v4: Removing PWL point (0.00407905,0)
v4: Removing PWL point (0.0040802,0)
v4: Removing PWL point (0.00408135,0)
v4: Removing PWL point (0.0040825,0)
v4: Removing PWL point (0.00408365,0)
v4: Removing PWL point (0.0040848,0)
v4: Removing PWL point (0.00408595,0)
v4: Removing PWL point (0.0040871,0)
v4: Removing PWL point (0.00408825,0)
v4: Removing PWL point (0.0040894,0)
v4: Removing PWL point (0.00409055,0)
v4: Removing PWL point (0.0040917,0)
v4: Removing PWL point (0.00409285,0)
v4: Removing PWL point (0.004094,0)
v4: Removing PWL point (0.00409515,0)
v4: Removing PWL point (0.0040963,0)
v4: Removing PWL point (0.00409745,0)
v4: Removing PWL point (0.0040986,0)
v4: Removing PWL point (0.00409975,0)
v4: Removing PWL point (0.0041009,0)
v4: Removing PWL point (0.00410205,0)
v4: Removing PWL point (0.0041032,0)
v4: Removing PWL point (0.00410435,0)
v4: Removing PWL point (0.0041055,0)
v4: Removing PWL point (0.00410665,0)
v4: Removing PWL point (0.0041078,0)
v4: Removing PWL point (0.00410895,0)
v4: Removing PWL point (0.0041101,0)
v4: Removing PWL point (0.00411125,0)
v4: Removing PWL point (0.0041124,0)
v4: Removing PWL point (0.00411355,0)
v4: Removing PWL point (0.0041147,0)
v4: Removing PWL point (0.00411585,0)
v4: Removing PWL point (0.004117,0)
v4: Removing PWL point (0.00411815,0)
v4: Removing PWL point (0.0041193,0)
v4: Removing PWL point (0.00412045,0)
v4: Removing PWL point (0.0041216,0)
v4: Removing PWL point (0.00412275,0)
v4: Removing PWL point (0.0041239,0)
v4: Removing PWL point (0.00412505,0)
v4: Removing PWL point (0.0041262,0)
v4: Removing PWL point (0.00412735,0)
v4: Removing PWL point (0.0041285,0)
v4: Removing PWL point (0.00412965,0)
v4: Removing PWL point (0.0041308,0)
v4: Removing PWL point (0.00413195,0)
v4: Removing PWL point (0.0041331,0)
v4: Removing PWL point (0.00413425,0)
v4: Removing PWL point (0.0041354,0)
v4: Removing PWL point (0.00413655,0)
v4: Removing PWL point (0.0041377,0)
v4: Removing PWL point (0.00413885,0)
v4: Removing PWL point (0.00414,0)
v4: Removing PWL point (0.00414115,0)
v4: Removing PWL point (0.0041423,0)
v4: Removing PWL point (0.00414345,0)
v4: Removing PWL point (0.0041446,0)
v4: Removing PWL point (0.00414575,0)
v4: Removing PWL point (0.0041469,0)
v4: Removing PWL point (0.00414805,0)
v4: Removing PWL point (0.0041492,0)
v4: Removing PWL point (0.00415035,0)
v4: Removing PWL point (0.0041515,0)
v4: Removing PWL point (0.00415265,0)
v4: Removing PWL point (0.0041538,0)
v4: Removing PWL point (0.00415495,0)
v4: Removing PWL point (0.0041561,0)
v4: Removing PWL point (0.00415725,0)
v4: Removing PWL point (0.0041584,0)
v4: Removing PWL point (0.00415955,0)
v4: Removing PWL point (0.0041607,0)
v4: Removing PWL point (0.00416185,0)
v4: Removing PWL point (0.004163,0)
v4: Removing PWL point (0.00416415,0)
v4: Removing PWL point (0.0041653,0)
v4: Removing PWL point (0.00416645,0)
v4: Removing PWL point (0.00416875,0)
v4: Removing PWL point (0.0041699,0)
v4: Removing PWL point (0.00417105,0)
v4: Removing PWL point (0.0041722,0)
v4: Removing PWL point (0.00417335,0)
v4: Removing PWL point (0.0041745,0)
v4: Removing PWL point (0.00417565,0)
v4: Removing PWL point (0.0041768,0)
v4: Removing PWL point (0.00417795,0)
v4: Removing PWL point (0.0041791,0)
v4: Removing PWL point (0.00418025,0)
v4: Removing PWL point (0.0041814,0)
v4: Removing PWL point (0.00418255,0)
v4: Removing PWL point (0.0041837,0)
v4: Removing PWL point (0.00418485,0)
v4: Removing PWL point (0.004186,0)
v4: Removing PWL point (0.00418715,0)
v4: Removing PWL point (0.0041883,0)
v4: Removing PWL point (0.0041906,0)
v4: Removing PWL point (0.00419175,0)
v4: Removing PWL point (0.0041929,0)
v4: Removing PWL point (0.00419405,0)
v4: Removing PWL point (0.0041952,0)
v4: Removing PWL point (0.00419635,0)
v4: Removing PWL point (0.0041975,0)
v4: Removing PWL point (0.00419865,0)
v4: Removing PWL point (0.0041998,0)
v4: Removing PWL point (0.00420095,0)
v4: Removing PWL point (0.0042021,0)
v4: Removing PWL point (0.00420325,0)
v4: Removing PWL point (0.0042044,0)
v4: Removing PWL point (0.00420555,0)
v4: Removing PWL point (0.0042067,0)
v4: Removing PWL point (0.00420785,0)
v4: Removing PWL point (0.004209,0)
v4: Removing PWL point (0.00421015,0)
v4: Removing PWL point (0.0042113,0)
v4: Removing PWL point (0.00421245,0)
v4: Removing PWL point (0.0042136,0)
v4: Removing PWL point (0.00421475,0)
v4: Removing PWL point (0.0042159,0)
v4: Removing PWL point (0.00421705,0)
v4: Removing PWL point (0.0042182,0)
v4: Removing PWL point (0.00421935,0)
v4: Removing PWL point (0.0042205,0)
v4: Removing PWL point (0.00422165,0)
v4: Removing PWL point (0.0042228,0)
v4: Removing PWL point (0.00422395,0)
v4: Removing PWL point (0.0042251,0)
v4: Removing PWL point (0.00422625,0)
v4: Removing PWL point (0.0042274,0)
v4: Removing PWL point (0.00422855,0)
v4: Removing PWL point (0.0042297,0)
v4: Removing PWL point (0.00423085,0)
v4: Removing PWL point (0.004232,0)
v4: Removing PWL point (0.00423315,0)
v4: Removing PWL point (0.0042343,0)
v4: Removing PWL point (0.00423545,0)
v4: Removing PWL point (0.0042366,0)
v4: Removing PWL point (0.00423775,0)
v4: Removing PWL point (0.0042389,0)
v4: Removing PWL point (0.00424005,0)
v4: Removing PWL point (0.0042412,0)
v4: Removing PWL point (0.00424235,0)
v4: Removing PWL point (0.0042435,0)
v4: Removing PWL point (0.00424465,0)
v4: Removing PWL point (0.0042458,0)
v4: Removing PWL point (0.00424695,0)
v4: Removing PWL point (0.0042481,0)
v4: Removing PWL point (0.00424925,0)
v4: Removing PWL point (0.0042504,0)
v4: Removing PWL point (0.00425155,0)
v4: Removing PWL point (0.0042527,0)
v4: Removing PWL point (0.00425385,0)
v4: Removing PWL point (0.004255,0)
v4: Removing PWL point (0.00425615,0)
v4: Removing PWL point (0.0042573,0)
v4: Removing PWL point (0.00425845,0)
v4: Removing PWL point (0.0042596,0)
v4: Removing PWL point (0.00426075,0)
v4: Removing PWL point (0.0042619,0)
v4: Removing PWL point (0.00426305,0)
v4: Removing PWL point (0.0042642,0)
v4: Removing PWL point (0.00426535,0)
v4: Removing PWL point (0.0042665,0)
v4: Removing PWL point (0.00426765,0)
v4: Removing PWL point (0.0042688,0)
v4: Removing PWL point (0.00426995,0)
v4: Removing PWL point (0.0042711,0)
v4: Removing PWL point (0.00427225,0)
v4: Removing PWL point (0.0042734,0)
v4: Removing PWL point (0.00427455,0)
v4: Removing PWL point (0.0042757,0)
v4: Removing PWL point (0.00427685,0)
v4: Removing PWL point (0.004278,0)
v4: Removing PWL point (0.00427915,0)
v4: Removing PWL point (0.0042803,0)
v4: Removing PWL point (0.00428145,0)
v4: Removing PWL point (0.0042826,0)
v4: Removing PWL point (0.00428375,0)
v4: Removing PWL point (0.0042849,0)
v4: Removing PWL point (0.00428605,0)
v4: Removing PWL point (0.0042872,0)
v4: Removing PWL point (0.00428835,0)
v4: Removing PWL point (0.0042895,0)
v4: Removing PWL point (0.00429065,0)
v4: Removing PWL point (0.0042918,0)
v4: Removing PWL point (0.00429295,0)
v4: Removing PWL point (0.0042941,0)
v4: Removing PWL point (0.00429525,0)
v4: Removing PWL point (0.0042964,0)
v4: Removing PWL point (0.00429755,0)
v4: Removing PWL point (0.0042987,0)
v4: Removing PWL point (0.00429985,0)
v4: Removing PWL point (0.004301,0)
v4: Removing PWL point (0.00430215,0)
v4: Removing PWL point (0.0043033,0)
v4: Removing PWL point (0.00430445,0)
v4: Removing PWL point (0.0043056,0)
v4: Removing PWL point (0.00430675,0)
v4: Removing PWL point (0.0043079,0)
v4: Removing PWL point (0.00430905,0)
v4: Removing PWL point (0.0043102,0)
v4: Removing PWL point (0.00431135,0)
v4: Removing PWL point (0.0043125,0)
v4: Removing PWL point (0.00431365,0)
v4: Removing PWL point (0.0043148,0)
v4: Removing PWL point (0.00431595,0)
v4: Removing PWL point (0.0043171,0)
v4: Removing PWL point (0.00431825,0)
v4: Removing PWL point (0.0043194,0)
v4: Removing PWL point (0.00432055,0)
v4: Removing PWL point (0.0043217,0)
v4: Removing PWL point (0.00432285,0)
v4: Removing PWL point (0.004324,0)
v4: Removing PWL point (0.00432515,0)
v4: Removing PWL point (0.0043263,0)
v4: Removing PWL point (0.00432745,0)
v4: Removing PWL point (0.0043286,0)
v4: Removing PWL point (0.00432975,0)
v4: Removing PWL point (0.0043309,0)
v4: Removing PWL point (0.00433205,0)
v4: Removing PWL point (0.0043332,0)
v4: Removing PWL point (0.00433435,0)
v4: Removing PWL point (0.0043355,0)
v4: Removing PWL point (0.00433665,0)
v4: Removing PWL point (0.0043378,0)
v4: Removing PWL point (0.00433895,0)
v4: Removing PWL point (0.0043401,0)
v4: Removing PWL point (0.00434125,0)
v4: Removing PWL point (0.0043424,0)
v4: Removing PWL point (0.00434355,0)
v4: Removing PWL point (0.0043447,0)
v4: Removing PWL point (0.00434585,0)
v4: Removing PWL point (0.004347,0)
v4: Removing PWL point (0.00434815,0)
v4: Removing PWL point (0.0043493,0)
v4: Removing PWL point (0.00435045,0)
v4: Removing PWL point (0.0043516,0)
v4: Removing PWL point (0.00435275,0)
v4: Removing PWL point (0.0043539,0)
v4: Removing PWL point (0.00435505,0)
v4: Removing PWL point (0.0043562,0)
v4: Removing PWL point (0.00435735,0)
v4: Removing PWL point (0.0043585,0)
v4: Removing PWL point (0.00435965,0)
v4: Removing PWL point (0.0043608,0)
v4: Removing PWL point (0.00436195,0)
v4: Removing PWL point (0.0043631,0)
v4: Removing PWL point (0.00436425,0)
v4: Removing PWL point (0.0043654,0)
v4: Removing PWL point (0.00436655,0)
v4: Removing PWL point (0.0043677,0)
v4: Removing PWL point (0.00436885,0)
v4: Removing PWL point (0.00437,0)
v4: Removing PWL point (0.00437115,0)
v4: Removing PWL point (0.0043723,0)
v4: Removing PWL point (0.00437345,0)
v4: Removing PWL point (0.0043746,0)
v4: Removing PWL point (0.00437575,0)
v4: Removing PWL point (0.0043769,0)
v4: Removing PWL point (0.00437805,0)
v4: Removing PWL point (0.0043792,0)
v4: Removing PWL point (0.00438035,0)
v4: Removing PWL point (0.0043815,0)
v4: Removing PWL point (0.00438265,0)
v4: Removing PWL point (0.0043838,0)
v4: Removing PWL point (0.00438495,0)
v4: Removing PWL point (0.0043861,0)
v4: Removing PWL point (0.00438725,0)
v4: Removing PWL point (0.0043884,0)
v4: Removing PWL point (0.00438955,0)
v4: Removing PWL point (0.0043907,0)
v4: Removing PWL point (0.00439185,0)
v4: Removing PWL point (0.004393,0)
v4: Removing PWL point (0.00439415,0)
v4: Removing PWL point (0.0043953,0)
v4: Removing PWL point (0.00439645,0)
v4: Removing PWL point (0.0043976,0)
v4: Removing PWL point (0.00439875,0)
v4: Removing PWL point (0.0043999,0)
v4: Removing PWL point (0.00440105,0)
v4: Removing PWL point (0.0044022,0)
v4: Removing PWL point (0.00440335,0)
v4: Removing PWL point (0.0044045,0)
v4: Removing PWL point (0.00440565,0)
v4: Removing PWL point (0.0044068,0)
v4: Removing PWL point (0.00440795,0)
v4: Removing PWL point (0.0044091,0)
v4: Removing PWL point (0.00441025,0)
v4: Removing PWL point (0.0044114,0)
v4: Removing PWL point (0.00441255,0)
v4: Removing PWL point (0.0044137,0)
v4: Removing PWL point (0.00441485,0)
v4: Removing PWL point (0.004416,0)
v4: Removing PWL point (0.00441715,0)
v4: Removing PWL point (0.0044183,0)
v4: Removing PWL point (0.00441945,0)
v4: Removing PWL point (0.0044206,0)
v4: Removing PWL point (0.00442175,0)
v4: Removing PWL point (0.0044229,0)
v4: Removing PWL point (0.00442405,0)
v4: Removing PWL point (0.0044252,0)
v4: Removing PWL point (0.00442635,0)
v4: Removing PWL point (0.0044275,0)
v4: Removing PWL point (0.00442865,0)
v4: Removing PWL point (0.0044298,0)
v4: Removing PWL point (0.00443095,0)
v4: Removing PWL point (0.0044321,0)
v4: Removing PWL point (0.00443325,0)
v4: Removing PWL point (0.0044344,0)
v4: Removing PWL point (0.00443555,0)
v4: Removing PWL point (0.0044367,0)
v4: Removing PWL point (0.00443785,0)
v4: Removing PWL point (0.004439,0)
v4: Removing PWL point (0.0044413,0)
v4: Removing PWL point (0.00444245,0)
v4: Removing PWL point (0.0044436,0)
v4: Removing PWL point (0.00444475,0)
v4: Removing PWL point (0.0044459,0)
v4: Removing PWL point (0.00444705,0)
v4: Removing PWL point (0.0044482,0)
v4: Removing PWL point (0.00444935,0)
v4: Removing PWL point (0.0044505,0)
v4: Removing PWL point (0.00445165,0)
v4: Removing PWL point (0.0044528,0)
v4: Removing PWL point (0.00445395,0)
v4: Removing PWL point (0.0044551,0)
v4: Removing PWL point (0.00445625,0)
v4: Removing PWL point (0.0044574,0)
v4: Removing PWL point (0.00445855,0)
v4: Removing PWL point (0.0044597,0)
v4: Removing PWL point (0.00446085,0)
v4: Removing PWL point (0.004462,0)
v4: Removing PWL point (0.00446315,0)
v4: Removing PWL point (0.0044643,0)
v4: Removing PWL point (0.00446545,0)
v4: Removing PWL point (0.0044666,0)
v4: Removing PWL point (0.00446775,0)
v4: Removing PWL point (0.0044689,0)
v4: Removing PWL point (0.00447005,0)
v4: Removing PWL point (0.0044712,0)
v4: Removing PWL point (0.00447235,0)
v4: Removing PWL point (0.0044735,0)
v4: Removing PWL point (0.00447465,0)
v4: Removing PWL point (0.0044758,0)
v4: Removing PWL point (0.00447695,0)
v4: Removing PWL point (0.0044781,0)
v4: Removing PWL point (0.00447925,0)
v4: Removing PWL point (0.0044804,0)
v4: Removing PWL point (0.00448155,0)
v4: Removing PWL point (0.0044827,0)
v4: Removing PWL point (0.00448385,0)
v4: Removing PWL point (0.004485,0)
v4: Removing PWL point (0.00448615,0)
v4: Removing PWL point (0.0044873,0)
v4: Removing PWL point (0.00448845,0)
v4: Removing PWL point (0.0044896,0)
v4: Removing PWL point (0.00449075,0)
v4: Removing PWL point (0.0044919,0)
v4: Removing PWL point (0.00449305,0)
v4: Removing PWL point (0.0044942,0)
v4: Removing PWL point (0.00449535,0)
v4: Removing PWL point (0.0044965,0)
v4: Removing PWL point (0.00449765,0)
v4: Removing PWL point (0.0044988,0)
v4: Removing PWL point (0.00449995,0)
v4: Removing PWL point (0.0045011,0)
v4: Removing PWL point (0.00450225,0)
v4: Removing PWL point (0.0045034,0)
v4: Removing PWL point (0.00450455,0)
v4: Removing PWL point (0.0045057,0)
v4: Removing PWL point (0.00450685,0)
v4: Removing PWL point (0.004508,0)
v4: Removing PWL point (0.00450915,0)
v4: Removing PWL point (0.0045103,0)
v4: Removing PWL point (0.00451145,0)
v4: Removing PWL point (0.0045126,0)
v4: Removing PWL point (0.00451375,0)
v4: Removing PWL point (0.0045149,0)
v4: Removing PWL point (0.00451605,0)
v4: Removing PWL point (0.0045172,0)
v4: Removing PWL point (0.00451835,0)
v4: Removing PWL point (0.0045195,0)
v4: Removing PWL point (0.00452065,0)
v4: Removing PWL point (0.0045218,0)
v4: Removing PWL point (0.00452295,0)
v4: Removing PWL point (0.0045241,0)
v4: Removing PWL point (0.00452525,0)
v4: Removing PWL point (0.0045264,0)
v4: Removing PWL point (0.00452755,0)
v4: Removing PWL point (0.0045287,0)
v4: Removing PWL point (0.00452985,0)
v4: Removing PWL point (0.004531,0)
v4: Removing PWL point (0.00453215,0)
v4: Removing PWL point (0.0045333,0)
v4: Removing PWL point (0.00453445,0)
v4: Removing PWL point (0.0045356,0)
v4: Removing PWL point (0.00453675,0)
v4: Removing PWL point (0.0045379,0)
v4: Removing PWL point (0.00453905,0)
v4: Removing PWL point (0.0045402,0)
v4: Removing PWL point (0.00454135,0)
v4: Removing PWL point (0.0045425,0)
v4: Removing PWL point (0.00454365,0)
v4: Removing PWL point (0.0045448,0)
v4: Removing PWL point (0.00454595,0)
v4: Removing PWL point (0.0045471,0)
v4: Removing PWL point (0.00454825,0)
v4: Removing PWL point (0.0045494,0)
v4: Removing PWL point (0.00455055,0)
v4: Removing PWL point (0.0045517,0)
v4: Removing PWL point (0.00455285,0)
v4: Removing PWL point (0.004554,0)
v4: Removing PWL point (0.00455515,0)
v4: Removing PWL point (0.0045563,0)
v4: Removing PWL point (0.00455745,0)
v4: Removing PWL point (0.0045586,0)
v4: Removing PWL point (0.00455975,0)
v4: Removing PWL point (0.0045609,0)
v4: Removing PWL point (0.00456205,0)
v4: Removing PWL point (0.0045632,0)
v4: Removing PWL point (0.00456435,0)
v4: Removing PWL point (0.0045655,0)
v4: Removing PWL point (0.00456665,0)
v4: Removing PWL point (0.0045678,0)
v4: Removing PWL point (0.00456895,0)
v4: Removing PWL point (0.0045701,0)
v4: Removing PWL point (0.00457125,0)
v4: Removing PWL point (0.0045724,0)
v4: Removing PWL point (0.00457355,0)
v4: Removing PWL point (0.0045747,0)
v4: Removing PWL point (0.00457585,0)
v4: Removing PWL point (0.004577,0)
v4: Removing PWL point (0.00457815,0)
v4: Removing PWL point (0.0045793,0)
v4: Removing PWL point (0.00458045,0)
v4: Removing PWL point (0.0045816,0)
v4: Removing PWL point (0.00458275,0)
v4: Removing PWL point (0.0045839,0)
v4: Removing PWL point (0.00458505,0)
v4: Removing PWL point (0.0045862,0)
v4: Removing PWL point (0.00458735,0)
v4: Removing PWL point (0.0045885,0)
v4: Removing PWL point (0.00458965,0)
v4: Removing PWL point (0.0045908,0)
v4: Removing PWL point (0.00459195,0)
v4: Removing PWL point (0.0045931,0)
v4: Removing PWL point (0.00459425,0)
v4: Removing PWL point (0.0045954,0)
v4: Removing PWL point (0.00459655,0)
v4: Removing PWL point (0.0045977,0)
v4: Removing PWL point (0.00459885,0)
Direct Newton iteration for .op point succeeded.
Total elapsed time: 3300.785 seconds.

