LTspice 24.0.12 for Windows
Circuit: * C:\Users\smili\OneDrive\Documents\GitHub\Laboratorio_6_7_ITeDA\LTSpice\Octubre - Test Circuitos en configuración NO Inversor\bode_circuito_completo_con_capacitores_en_preamp_NO_Inversor_actualizado.asc
Start Time: Thu Oct  3 14:40:23 2024
solver = Normal
Maximum thread count: 12
tnom = 27
temp = 27
method = modified trap
Direct Newton iteration for .op point succeeded.
Total elapsed time: 0.096 seconds.

