LTspice 24.0.9 for Windows
Circuit: * C:\Users\Usuario\Documents\Laboratorio_6_7_ITeDA\LTSpice\Octubre - Test Circuitos en configuración NO Inversor\bode_circuito_completo_con_capacitores_en_preamp_inversor_v2.asc
Start Time: Fri Aug 22 11:11:38 2025
solver = Normal
Maximum thread count: 12
tnom = 27
temp = 27
method = modified trap
v2: Removing PWL point (0.0239033,0)
v2: Removing PWL point (0.0421733,0)
v2: Removing PWL point (0.0781956,0)
v2: Removing PWL point (0.088102,0)
v2: Removing PWL point (0.0939281,0)
v2: Removing PWL point (0.0975517,0)
v2: Removing PWL point (0.14822,0)
v2: Removing PWL point (0.15497,0)
v2: Removing PWL point (0.166399,0)
v2: Removing PWL point (0.181715,0)
v2: Removing PWL point (0.190241,0)
v2: Removing PWL point (0.200828,0)
v2: Removing PWL point (0.227015,0)
v2: Removing PWL point (0.240251,0)
v2: Removing PWL point (0.256927,0)
v2: Removing PWL point (0.259292,0)
v2: Removing PWL point (0.259302,0)
v2: Removing PWL point (0.263037,0)
v2: Removing PWL point (0.273664,0)
v2: Removing PWL point (0.277491,0)
v2: Removing PWL point (0.278059,0)
v2: Removing PWL point (0.279095,0)
v2: Removing PWL point (0.280292,0)
v2: Removing PWL point (0.284068,0)
v2: Removing PWL point (0.28958,0)
v2: Removing PWL point (0.290787,0)
v2: Removing PWL point (0.292107,0)
v2: Removing PWL point (0.292208,0)
v2: Removing PWL point (0.296857,0)
v2: Removing PWL point (0.296918,0)
v2: Removing PWL point (0.300095,0)
v2: Removing PWL point (0.30177,0)
v2: Removing PWL point (0.309656,0)
v2: Removing PWL point (0.31468,0)
v2: Removing PWL point (0.315858,0)
v2: Removing PWL point (0.325988,0)
v2: Removing PWL point (0.327226,0)
v2: Removing PWL point (0.333519,0)
v2: Removing PWL point (0.34513,0)
v2: Removing PWL point (0.348551,0)
v2: Removing PWL point (0.349525,0)
v2: Removing PWL point (0.350074,0)
v2: Removing PWL point (0.350297,0)
v2: Removing PWL point (0.350601,0)
v2: Removing PWL point (0.351748,0)
v2: Removing PWL point (0.352053,0)
v2: Removing PWL point (0.353809,0)
v2: Removing PWL point (0.360183,0)
v2: Removing PWL point (0.361502,0)
v2: Removing PWL point (0.361797,0)
v2: Removing PWL point (0.36336,0)
v2: Removing PWL point (0.366679,0)
v2: Removing PWL point (0.366699,0)
v2: Removing PWL point (0.373642,0)
v2: Removing PWL point (0.380026,0)
v2: Removing PWL point (0.384502,0)
v2: Removing PWL point (0.38637,0)
v2: Removing PWL point (0.394734,0)
v2: Removing PWL point (0.397921,0)
v2: Removing PWL point (0.398956,0)
v2: Removing PWL point (0.398966,0)
v2: Removing PWL point (0.399057,0)
v2: Removing PWL point (0.399362,0)
v2: Removing PWL point (0.402143,0)
v2: Removing PWL point (0.40327,0)
v2: Removing PWL point (0.407248,0)
v2: Removing PWL point (0.411278,0)
v2: Removing PWL point (0.412313,0)
v2: Removing PWL point (0.41409,0)
v2: Removing PWL point (0.417094,0)
v2: Removing PWL point (0.417378,0)
v2: Removing PWL point (0.418799,0)
v2: Removing PWL point (0.422748,0)
v2: Removing PWL point (0.424575,0)
v2: Removing PWL point (0.427792,0)
v2: Removing PWL point (0.428086,0)
v2: Removing PWL point (0.428645,0)
v2: Removing PWL point (0.429781,0)
v2: Removing PWL point (0.429924,0)
v2: Removing PWL point (0.433669,0)
v2: Removing PWL point (0.436856,0)
v2: Removing PWL point (0.438389,0)
v2: Removing PWL point (0.438947,0)
v2: Removing PWL point (0.440906,0)
v2: Removing PWL point (0.44386,0)
v2: Removing PWL point (0.447534,0)
v2: Removing PWL point (0.448579,0)
v2: Removing PWL point (0.449036,0)
v2: Removing PWL point (0.451574,0)
v2: Removing PWL point (0.452436,0)
v2: Removing PWL point (0.452619,0)
v2: Removing PWL point (0.454781,0)
v2: Removing PWL point (0.455085,0)
v2: Removing PWL point (0.455106,0)
v2: Removing PWL point (0.456709,0)
v2: Removing PWL point (0.45877,0)
v2: Removing PWL point (0.460049,0)
v2: Removing PWL point (0.461947,0)
v2: Removing PWL point (0.462048,0)
v2: Removing PWL point (0.46287,0)
v2: Removing PWL point (0.465926,0)
v2: Removing PWL point (0.466017,0)
v2: Removing PWL point (0.466433,0)
v2: Removing PWL point (0.467123,0)
v2: Removing PWL point (0.468534,0)
v2: Removing PWL point (0.470716,0)
v2: Removing PWL point (0.472686,0)
v2: Removing PWL point (0.473102,0)
v2: Removing PWL point (0.473142,0)
v2: Removing PWL point (0.474847,0)
v2: Removing PWL point (0.477486,0)
v2: Removing PWL point (0.477547,0)
v2: Removing PWL point (0.478836,0)
v2: Removing PWL point (0.479364,0)
v2: Removing PWL point (0.479598,0)
v2: Removing PWL point (0.481597,0)
v2: Removing PWL point (0.482947,0)
v2: Removing PWL point (0.484591,0)
v2: Removing PWL point (0.486094,0)
v2: Removing PWL point (0.487109,0)
v2: Removing PWL point (0.488347,0)
v2: Removing PWL point (0.489078,0)
v2: Removing PWL point (0.490123,0)
v2: Removing PWL point (0.490428,0)
v2: Removing PWL point (0.490763,0)
v2: Removing PWL point (0.49193,0)
v2: Removing PWL point (0.493483,0)
v2: Removing PWL point (0.494001,0)
v2: Removing PWL point (0.494122,0)
v2: Removing PWL point (0.494752,0)
v2: Removing PWL point (0.497431,0)
v2: Removing PWL point (0.498954,0)
v2: Removing PWL point (0.499644,0)
v2: Removing PWL point (0.499796,0)
v2: Removing PWL point (0.502445,0)
v2: Removing PWL point (0.503288,0)
v2: Removing PWL point (0.503562,0)
v2: Removing PWL point (0.504628,0)
v2: Removing PWL point (0.505754,0)
v2: Removing PWL point (0.509337,0)
v2: Removing PWL point (0.512342,0)
v2: Removing PWL point (0.512717,0)
v2: Removing PWL point (0.513499,0)
v2: Removing PWL point (0.51493,0)
v2: Removing PWL point (0.515803,0)
v2: Removing PWL point (0.516371,0)
v2: Removing PWL point (0.519771,0)
v2: Removing PWL point (0.520533,0)
v2: Removing PWL point (0.520817,0)
v2: Removing PWL point (0.521345,0)
v2: Removing PWL point (0.521913,0)
v2: Removing PWL point (0.522187,0)
v2: Removing PWL point (0.524684,0)
v2: Removing PWL point (0.525557,0)
v2: Removing PWL point (0.527414,0)
v2: Removing PWL point (0.52917,0)
v2: Removing PWL point (0.529414,0)
v2: Removing PWL point (0.530327,0)
v2: Removing PWL point (0.530774,0)
v2: Removing PWL point (0.531962,0)
v2: Removing PWL point (0.532865,0)
v2: Removing PWL point (0.533423,0)
v2: Removing PWL point (0.535291,0)
v2: Removing PWL point (0.538924,0)
v2: Removing PWL point (0.541797,0)
v2: Removing PWL point (0.543553,0)
v2: Removing PWL point (0.543898,0)
v2: Removing PWL point (0.544121,0)
v2: Removing PWL point (0.546232,0)
v2: Removing PWL point (0.548547,0)
v2: Removing PWL point (0.549602,0)
v2: Removing PWL point (0.550272,0)
v2: Removing PWL point (0.553134,0)
v2: Removing PWL point (0.5535,0)
v2: Removing PWL point (0.553743,0)
v2: Removing PWL point (0.557052,0)
v2: Removing PWL point (0.557184,0)
v2: Removing PWL point (0.557803,0)
v2: Removing PWL point (0.559052,0)
v2: Removing PWL point (0.560199,0)
v2: Removing PWL point (0.560899,0)
v2: Removing PWL point (0.563609,0)
v2: Removing PWL point (0.564279,0)
v2: Removing PWL point (0.567324,0)
v2: Removing PWL point (0.569801,0)
v2: Removing PWL point (0.569994,0)
v2: Removing PWL point (0.570491,0)
v2: Removing PWL point (0.576327,0)
v2: Removing PWL point (0.57923,0)
v2: Removing PWL point (0.57988,0)
v2: Removing PWL point (0.580428,0)
v2: Removing PWL point (0.581179,0)
v2: Removing PWL point (0.583635,0)
v2: Removing PWL point (0.584599,0)
v2: Removing PWL point (0.584965,0)
v2: Removing PWL point (0.585137,0)
v2: Removing PWL point (0.586335,0)
v2: Removing PWL point (0.586579,0)
v2: Removing PWL point (0.587756,0)
v2: Removing PWL point (0.587766,0)
v2: Removing PWL point (0.588172,0)
v2: Removing PWL point (0.588568,0)
v2: Removing PWL point (0.58937,0)
v2: Removing PWL point (0.593278,0)
v2: Removing PWL point (0.593745,0)
v2: Removing PWL point (0.593755,0)
v2: Removing PWL point (0.594902,0)
v2: Removing PWL point (0.59548,0)
v2: Removing PWL point (0.597399,0)
v2: Removing PWL point (0.597947,0)
v2: Removing PWL point (0.601509,0)
v2: Removing PWL point (0.602778,0)
v2: Removing PWL point (0.604037,0)
v2: Removing PWL point (0.604504,0)
v2: Removing PWL point (0.604524,0)
v2: Removing PWL point (0.606777,0)
v2: Removing PWL point (0.606879,0)
v2: Removing PWL point (0.607122,0)
v2: Removing PWL point (0.607234,0)
v2: Removing PWL point (0.609284,0)
v2: Removing PWL point (0.61235,0)
v2: Removing PWL point (0.612857,0)
v2: Removing PWL point (0.613578,0)
v2: Removing PWL point (0.613984,0)
v2: Removing PWL point (0.614816,0)
v2: Removing PWL point (0.615953,0)
v2: Removing PWL point (0.616054,0)
v2: Removing PWL point (0.617922,0)
v2: Removing PWL point (0.618145,0)
v2: Removing PWL point (0.618571,0)
v2: Removing PWL point (0.618774,0)
v2: Removing PWL point (0.618917,0)
v2: Removing PWL point (0.620043,0)
v2: Removing PWL point (0.620865,0)
v2: Removing PWL point (0.62184,0)
v2: Removing PWL point (0.622703,0)
v2: Removing PWL point (0.624854,0)
v2: Removing PWL point (0.625748,0)
v2: Removing PWL point (0.627808,0)
v2: Removing PWL point (0.628305,0)
v2: Removing PWL point (0.628315,0)
v2: Removing PWL point (0.629391,0)
v2: Removing PWL point (0.630741,0)
v2: Removing PWL point (0.631533,0)
v2: Removing PWL point (0.631584,0)
v2: Removing PWL point (0.631858,0)
v2: Removing PWL point (0.634446,0)
v2: Removing PWL point (0.634903,0)
v2: Removing PWL point (0.635106,0)
v2: Removing PWL point (0.63538,0)
v2: Removing PWL point (0.636354,0)
v2: Removing PWL point (0.636385,0)
v2: Removing PWL point (0.636395,0)
v2: Removing PWL point (0.63744,0)
v2: Removing PWL point (0.637897,0)
v2: Removing PWL point (0.638618,0)
v2: Removing PWL point (0.640303,0)
v2: Removing PWL point (0.640506,0)
v2: Removing PWL point (0.6408,0)
v2: Removing PWL point (0.641602,0)
v2: Removing PWL point (0.643632,0)
v2: Removing PWL point (0.644119,0)
v2: Removing PWL point (0.645388,0)
v2: Removing PWL point (0.645834,0)
v2: Removing PWL point (0.646027,0)
v2: Removing PWL point (0.646728,0)
v2: Removing PWL point (0.64754,0)
v2: Removing PWL point (0.647895,0)
v2: Removing PWL point (0.647996,0)
v2: Removing PWL point (0.648879,0)
v2: Removing PWL point (0.64895,0)
v2: Removing PWL point (0.649539,0)
v2: Removing PWL point (0.649752,0)
v2: Removing PWL point (0.650635,0)
v2: Removing PWL point (0.650808,0)
v2: Removing PWL point (0.650909,0)
v2: Removing PWL point (0.65092,0)
v2: Removing PWL point (0.651863,0)
v2: Removing PWL point (0.652594,0)
v2: Removing PWL point (0.655487,0)
v2: Removing PWL point (0.657324,0)
v2: Removing PWL point (0.65775,0)
v2: Removing PWL point (0.658745,0)
v2: Removing PWL point (0.659019,0)
v2: Removing PWL point (0.659029,0)
v2: Removing PWL point (0.659446,0)
v2: Removing PWL point (0.66247,0)
v2: Removing PWL point (0.663079,0)
v2: Removing PWL point (0.663434,0)
v2: Removing PWL point (0.663617,0)
v2: Removing PWL point (0.666896,0)
v2: Removing PWL point (0.669423,0)
v2: Removing PWL point (0.669677,0)
v2: Removing PWL point (0.669809,0)
v2: Removing PWL point (0.670073,0)
v2: Removing PWL point (0.670489,0)
v2: Removing PWL point (0.670915,0)
v2: Removing PWL point (0.671047,0)
v2: Removing PWL point (0.671128,0)
v2: Removing PWL point (0.671544,0)
v2: Removing PWL point (0.672092,0)
v2: Removing PWL point (0.672316,0)
v2: Removing PWL point (0.672346,0)
v2: Removing PWL point (0.67263,0)
v2: Removing PWL point (0.674092,0)
v2: Removing PWL point (0.674539,0)
v2: Removing PWL point (0.675726,0)
v2: Removing PWL point (0.675919,0)
v2: Removing PWL point (0.676569,0)
v2: Removing PWL point (0.677238,0)
v2: Removing PWL point (0.677584,0)
v2: Removing PWL point (0.679065,0)
v2: Removing PWL point (0.679563,0)
v2: Removing PWL point (0.680578,0)
v2: Removing PWL point (0.680629,0)
v2: Removing PWL point (0.681238,0)
v2: Removing PWL point (0.681776,0)
v2: Removing PWL point (0.682557,0)
v2: Removing PWL point (0.682628,0)
v2: Removing PWL point (0.683004,0)
v2: Removing PWL point (0.683897,0)
v2: Removing PWL point (0.684242,0)
v2: Removing PWL point (0.684435,0)
v2: Removing PWL point (0.685673,0)
v2: Removing PWL point (0.685896,0)
v2: Removing PWL point (0.686901,0)
v2: Removing PWL point (0.68883,0)
v2: Removing PWL point (0.688881,0)
v2: Removing PWL point (0.690241,0)
v2: Removing PWL point (0.690413,0)
v2: Removing PWL point (0.690708,0)
v2: Removing PWL point (0.690718,0)
v2: Removing PWL point (0.69086,0)
v2: Removing PWL point (0.691114,0)
v2: Removing PWL point (0.691763,0)
v2: Removing PWL point (0.691926,0)
v2: Removing PWL point (0.694707,0)
v2: Removing PWL point (0.697813,0)
v2: Removing PWL point (0.698219,0)
v2: Removing PWL point (0.698249,0)
v2: Removing PWL point (0.700086,0)
v2: Removing PWL point (0.700482,0)
v2: Removing PWL point (0.701741,0)
v2: Removing PWL point (0.702339,0)
v2: Removing PWL point (0.70306,0)
v2: Removing PWL point (0.703608,0)
v2: Removing PWL point (0.705212,0)
v2: Removing PWL point (0.705425,0)
v2: Removing PWL point (0.706064,0)
v2: Removing PWL point (0.70645,0)
v2: Removing PWL point (0.706897,0)
v2: Removing PWL point (0.706958,0)
v2: Removing PWL point (0.707171,0)
v2: Removing PWL point (0.707587,0)
v2: Removing PWL point (0.707851,0)
v2: Removing PWL point (0.707861,0)
v2: Removing PWL point (0.708084,0)
v2: Removing PWL point (0.708358,0)
v2: Removing PWL point (0.708369,0)
v2: Removing PWL point (0.709069,0)
v2: Removing PWL point (0.710165,0)
v2: Removing PWL point (0.710256,0)
v2: Removing PWL point (0.710348,0)
v2: Removing PWL point (0.71051,0)
v2: Removing PWL point (0.710744,0)
v2: Removing PWL point (0.71116,0)
v2: Removing PWL point (0.711312,0)
v2: Removing PWL point (0.711332,0)
v2: Removing PWL point (0.711505,0)
v2: Removing PWL point (0.711545,0)
v2: Removing PWL point (0.711891,0)
v2: Removing PWL point (0.712083,0)
v2: Removing PWL point (0.712337,0)
v2: Removing PWL point (0.71254,0)
v2: Removing PWL point (0.712875,0)
v2: Removing PWL point (0.713738,0)
v2: Removing PWL point (0.713758,0)
v2: Removing PWL point (0.713992,0)
v2: Removing PWL point (0.714002,0)
v2: Removing PWL point (0.714347,0)
v2: Removing PWL point (0.714611,0)
v2: Removing PWL point (0.715352,0)
v2: Removing PWL point (0.715372,0)
v2: Removing PWL point (0.716174,0)
v2: Removing PWL point (0.716204,0)
v2: Removing PWL point (0.716976,0)
v2: Removing PWL point (0.717169,0)
v2: Removing PWL point (0.717331,0)
v2: Removing PWL point (0.71862,0)
v2: Removing PWL point (0.718752,0)
v2: Removing PWL point (0.719107,0)
v2: Removing PWL point (0.719178,0)
v2: Removing PWL point (0.719889,0)
v2: Removing PWL point (0.720214,0)
v2: Removing PWL point (0.721107,0)
v2: Removing PWL point (0.722112,0)
v2: Removing PWL point (0.722639,0)
v2: Removing PWL point (0.723604,0)
v2: Removing PWL point (0.723837,0)
v2: Removing PWL point (0.724883,0)
v2: Removing PWL point (0.725146,0)
v2: Removing PWL point (0.725928,0)
v2: Removing PWL point (0.72603,0)
v2: Removing PWL point (0.72671,0)
v2: Removing PWL point (0.727217,0)
v2: Removing PWL point (0.727339,0)
v2: Removing PWL point (0.727511,0)
v2: Removing PWL point (0.727542,0)
v2: Removing PWL point (0.727907,0)
v2: Removing PWL point (0.728049,0)
v2: Removing PWL point (0.72879,0)
v2: Removing PWL point (0.728922,0)
v2: Removing PWL point (0.729115,0)
v2: Removing PWL point (0.730018,0)
v2: Removing PWL point (0.730891,0)
v2: Removing PWL point (0.731155,0)
v2: Removing PWL point (0.731247,0)
v2: Removing PWL point (0.732018,0)
v2: Removing PWL point (0.732059,0)
v2: Removing PWL point (0.732404,0)
v2: Removing PWL point (0.733409,0)
v2: Removing PWL point (0.734363,0)
v2: Removing PWL point (0.734799,0)
v2: Removing PWL point (0.735002,0)
v2: Removing PWL point (0.735652,0)
v2: Removing PWL point (0.735702,0)
v2: Removing PWL point (0.735794,0)
v2: Removing PWL point (0.736362,0)
v2: Removing PWL point (0.736687,0)
v2: Removing PWL point (0.737235,0)
v2: Removing PWL point (0.737895,0)
v2: Removing PWL point (0.738078,0)
v2: Removing PWL point (0.738088,0)
v2: Removing PWL point (0.738392,0)
v2: Removing PWL point (0.738605,0)
v2: Removing PWL point (0.73894,0)
v2: Removing PWL point (0.73895,0)
v2: Removing PWL point (0.739082,0)
v2: Removing PWL point (0.739285,0)
v2: Removing PWL point (0.739499,0)
v2: Removing PWL point (0.739803,0)
v2: Removing PWL point (0.741853,0)
v2: Removing PWL point (0.74231,0)
v2: Removing PWL point (0.742493,0)
v2: Removing PWL point (0.742767,0)
v2: Removing PWL point (0.742899,0)
v2: Removing PWL point (0.744827,0)
v2: Removing PWL point (0.745132,0)
v2: Removing PWL point (0.745223,0)
v2: Removing PWL point (0.745375,0)
v2: Removing PWL point (0.745578,0)
v2: Removing PWL point (0.746888,0)
v2: Removing PWL point (0.747142,0)
v2: Removing PWL point (0.748491,0)
v2: Removing PWL point (0.750359,0)
v2: Removing PWL point (0.750613,0)
v2: Removing PWL point (0.750907,0)
v2: Removing PWL point (0.75109,0)
v2: Removing PWL point (0.751212,0)
v2: Removing PWL point (0.751262,0)
v2: Removing PWL point (0.753323,0)
v2: Removing PWL point (0.754916,0)
v2: Removing PWL point (0.75513,0)
v2: Removing PWL point (0.755546,0)
v2: Removing PWL point (0.757038,0)
v2: Removing PWL point (0.757545,0)
v2: Removing PWL point (0.75788,0)
v2: Removing PWL point (0.757901,0)
v2: Removing PWL point (0.758499,0)
v2: Removing PWL point (0.758773,0)
v2: Removing PWL point (0.759311,0)
v2: Removing PWL point (0.760194,0)
v2: Removing PWL point (0.760235,0)
v2: Removing PWL point (0.761575,0)
v2: Removing PWL point (0.761788,0)
v2: Removing PWL point (0.7619,0)
v2: Removing PWL point (0.762092,0)
v2: Removing PWL point (0.763138,0)
v2: Removing PWL point (0.763757,0)
v2: Removing PWL point (0.764153,0)
v2: Removing PWL point (0.765198,0)
v2: Removing PWL point (0.7653,0)
v2: Removing PWL point (0.765615,0)
v2: Removing PWL point (0.765767,0)
v2: Removing PWL point (0.765929,0)
v2: Removing PWL point (0.766924,0)
v2: Removing PWL point (0.767178,0)
v2: Removing PWL point (0.76736,0)
v2: Removing PWL point (0.767807,0)
v2: Removing PWL point (0.76867,0)
v2: Removing PWL point (0.769126,0)
v2: Removing PWL point (0.770202,0)
v2: Removing PWL point (0.770588,0)
v2: Removing PWL point (0.771258,0)
v2: Removing PWL point (0.771268,0)
v2: Removing PWL point (0.771359,0)
v2: Removing PWL point (0.772324,0)
v2: Removing PWL point (0.772851,0)
v2: Removing PWL point (0.773684,0)
v2: Removing PWL point (0.773714,0)
v2: Removing PWL point (0.773795,0)
v2: Removing PWL point (0.77412,0)
v2: Removing PWL point (0.77477,0)
v2: Removing PWL point (0.774942,0)
v2: Removing PWL point (0.775084,0)
v2: Removing PWL point (0.775257,0)
v2: Removing PWL point (0.775988,0)
v2: Removing PWL point (0.77616,0)
v2: Removing PWL point (0.776455,0)
v2: Removing PWL point (0.776648,0)
v2: Removing PWL point (0.777632,0)
v2: Removing PWL point (0.777774,0)
v2: Removing PWL point (0.777926,0)
v2: Removing PWL point (0.778008,0)
v2: Removing PWL point (0.778738,0)
v2: Removing PWL point (0.778992,0)
v2: Removing PWL point (0.779084,0)
v2: Removing PWL point (0.780058,0)
v2: Removing PWL point (0.781246,0)
v2: Removing PWL point (0.781641,0)
v2: Removing PWL point (0.781956,0)
v2: Removing PWL point (0.782342,0)
v2: Removing PWL point (0.782474,0)
v2: Removing PWL point (0.782595,0)
v2: Removing PWL point (0.78293,0)
v2: Removing PWL point (0.783052,0)
v2: Removing PWL point (0.783864,0)
v2: Removing PWL point (0.784159,0)
v2: Removing PWL point (0.785123,0)
v2: Removing PWL point (0.785224,0)
v2: Removing PWL point (0.785366,0)
v2: Removing PWL point (0.785661,0)
v2: Removing PWL point (0.785793,0)
v2: Removing PWL point (0.78626,0)
v2: Removing PWL point (0.786879,0)
v2: Removing PWL point (0.788239,0)
v2: Removing PWL point (0.788391,0)
v2: Removing PWL point (0.788533,0)
v2: Removing PWL point (0.788909,0)
v2: Removing PWL point (0.789964,0)
v2: Removing PWL point (0.789975,0)
v2: Removing PWL point (0.790289,0)
v2: Removing PWL point (0.790787,0)
v2: Removing PWL point (0.791335,0)
v2: Removing PWL point (0.791558,0)
v2: Removing PWL point (0.79173,0)
v2: Removing PWL point (0.792136,0)
v2: Removing PWL point (0.792218,0)
v2: Removing PWL point (0.792471,0)
v2: Removing PWL point (0.792614,0)
v2: Removing PWL point (0.792999,0)
v2: Removing PWL point (0.793446,0)
v2: Removing PWL point (0.795141,0)
v2: Removing PWL point (0.795435,0)
v2: Removing PWL point (0.795527,0)
v2: Removing PWL point (0.795567,0)
v2: Removing PWL point (0.795922,0)
v2: Removing PWL point (0.795943,0)
v2: Removing PWL point (0.796004,0)
v2: Removing PWL point (0.796399,0)
v2: Removing PWL point (0.796805,0)
v2: Removing PWL point (0.797435,0)
v2: Removing PWL point (0.797658,0)
v2: Removing PWL point (0.7978,0)
v2: Removing PWL point (0.797993,0)
v2: Removing PWL point (0.798825,0)
v2: Removing PWL point (0.798907,0)
v2: Removing PWL point (0.799313,0)
v2: Removing PWL point (0.799343,0)
v2: Removing PWL point (0.799526,0)
v2: Removing PWL point (0.799556,0)
v2: Removing PWL point (0.800094,0)
v2: Removing PWL point (0.800348,0)
v2: Removing PWL point (0.800896,0)
v2: Removing PWL point (0.801363,0)
v2: Removing PWL point (0.802043,0)
v2: Removing PWL point (0.802591,0)
v2: Removing PWL point (0.803078,0)
v2: Removing PWL point (0.803149,0)
v2: Removing PWL point (0.803982,0)
v2: Removing PWL point (0.804256,0)
v2: Removing PWL point (0.804459,0)
v2: Removing PWL point (0.804621,0)
v2: Removing PWL point (0.805819,0)
v2: Removing PWL point (0.806022,0)
v2: Removing PWL point (0.806458,0)
v2: Removing PWL point (0.806996,0)
v2: Removing PWL point (0.807138,0)
v2: Removing PWL point (0.808062,0)
v2: Removing PWL point (0.808194,0)
v2: Removing PWL point (0.808711,0)
v2: Removing PWL point (0.808742,0)
v2: Removing PWL point (0.809777,0)
v2: Removing PWL point (0.810082,0)
v2: Removing PWL point (0.810203,0)
v2: Removing PWL point (0.810599,0)
v2: Removing PWL point (0.811087,0)
v2: Removing PWL point (0.811381,0)
v2: Removing PWL point (0.811503,0)
v2: Removing PWL point (0.812274,0)
v2: Removing PWL point (0.81269,0)
v2: Removing PWL point (0.812995,0)
v2: Removing PWL point (0.813309,0)
v2: Removing PWL point (0.813391,0)
v2: Removing PWL point (0.813624,0)
v2: Removing PWL point (0.813929,0)
v2: Removing PWL point (0.814619,0)
v2: Removing PWL point (0.815908,0)
v2: Removing PWL point (0.816811,0)
v2: Removing PWL point (0.816842,0)
v2: Removing PWL point (0.817116,0)
v2: Removing PWL point (0.817501,0)
v2: Removing PWL point (0.817684,0)
v2: Removing PWL point (0.818202,0)
v2: Removing PWL point (0.818212,0)
v2: Removing PWL point (0.818323,0)
v2: Removing PWL point (0.818608,0)
v2: Removing PWL point (0.818699,0)
v2: Removing PWL point (0.819024,0)
v2: Removing PWL point (0.819125,0)
v2: Removing PWL point (0.819156,0)
v2: Removing PWL point (0.81942,0)
v2: Removing PWL point (0.819511,0)
v2: Removing PWL point (0.819785,0)
v2: Removing PWL point (0.820191,0)
v2: Removing PWL point (0.820323,0)
v2: Removing PWL point (0.820567,0)
v2: Removing PWL point (0.820617,0)
v2: Removing PWL point (0.8208,0)
v2: Removing PWL point (0.821003,0)
v2: Removing PWL point (0.821561,0)
v2: Removing PWL point (0.82216,0)
v2: Removing PWL point (0.822394,0)
v2: Removing PWL point (0.822678,0)
v2: Removing PWL point (0.822779,0)
v2: Removing PWL point (0.82281,0)
v2: Removing PWL point (0.823053,0)
v2: Removing PWL point (0.823723,0)
v2: Removing PWL point (0.824231,0)
v2: Removing PWL point (0.824363,0)
v2: Removing PWL point (0.824759,0)
v2: Removing PWL point (0.82486,0)
v2: Removing PWL point (0.825286,0)
v2: Removing PWL point (0.825449,0)
v2: Removing PWL point (0.826586,0)
v2: Removing PWL point (0.826616,0)
v2: Removing PWL point (0.826636,0)
v2: Removing PWL point (0.82687,0)
v2: Removing PWL point (0.827195,0)
v2: Removing PWL point (0.82754,0)
v2: Removing PWL point (0.827804,0)
v2: Removing PWL point (0.828098,0)
v2: Removing PWL point (0.828159,0)
v2: Removing PWL point (0.82821,0)
v2: Removing PWL point (0.828981,0)
v2: Removing PWL point (0.829133,0)
v2: Removing PWL point (0.829631,0)
v2: Removing PWL point (0.830006,0)
v2: Removing PWL point (0.830849,0)
v2: Removing PWL point (0.830859,0)
v2: Removing PWL point (0.831011,0)
v2: Removing PWL point (0.831102,0)
v2: Removing PWL point (0.831214,0)
v2: Removing PWL point (0.832229,0)
v2: Removing PWL point (0.832259,0)
v2: Removing PWL point (0.833153,0)
v2: Removing PWL point (0.833609,0)
v2: Removing PWL point (0.83364,0)
v2: Removing PWL point (0.833863,0)
v2: Removing PWL point (0.833944,0)
v2: Removing PWL point (0.834959,0)
v2: Removing PWL point (0.835132,0)
v2: Removing PWL point (0.835315,0)
v2: Removing PWL point (0.836005,0)
v2: Removing PWL point (0.836624,0)
v2: Removing PWL point (0.836786,0)
v2: Removing PWL point (0.837152,0)
v2: Removing PWL point (0.837527,0)
v2: Removing PWL point (0.837568,0)
v2: Removing PWL point (0.838116,0)
v2: Removing PWL point (0.83836,0)
v2: Removing PWL point (0.838502,0)
v2: Removing PWL point (0.838918,0)
v2: Removing PWL point (0.839263,0)
v2: Removing PWL point (0.839578,0)
v2: Removing PWL point (0.840055,0)
v2: Removing PWL point (0.840126,0)
v2: Removing PWL point (0.840176,0)
v2: Removing PWL point (0.840187,0)
v2: Removing PWL point (0.841283,0)
v2: Removing PWL point (0.841415,0)
v2: Removing PWL point (0.841597,0)
v2: Removing PWL point (0.841618,0)
v2: Removing PWL point (0.842166,0)
v2: Removing PWL point (0.842673,0)
v2: Removing PWL point (0.843495,0)
v2: Removing PWL point (0.843638,0)
v2: Removing PWL point (0.843983,0)
v2: Removing PWL point (0.8445,0)
v2: Removing PWL point (0.844957,0)
v2: Removing PWL point (0.845322,0)
v2: Removing PWL point (0.845566,0)
v2: Removing PWL point (0.845962,0)
v2: Removing PWL point (0.846013,0)
v2: Removing PWL point (0.846023,0)
v2: Removing PWL point (0.846033,0)
v2: Removing PWL point (0.846256,0)
v2: Removing PWL point (0.846277,0)
v2: Removing PWL point (0.846723,0)
v2: Removing PWL point (0.847383,0)
v2: Removing PWL point (0.847464,0)
v2: Removing PWL point (0.847687,0)
v2: Removing PWL point (0.848073,0)
v2: Removing PWL point (0.848205,0)
v2: Removing PWL point (0.848307,0)
v2: Removing PWL point (0.849119,0)
v2: Removing PWL point (0.849413,0)
v2: Removing PWL point (0.849464,0)
v2: Removing PWL point (0.849717,0)
v2: Removing PWL point (0.850286,0)
v2: Removing PWL point (0.850397,0)
v2: Removing PWL point (0.850509,0)
v2: Removing PWL point (0.85055,0)
v2: Removing PWL point (0.850732,0)
v2: Removing PWL point (0.850956,0)
v2: Removing PWL point (0.851199,0)
v2: Removing PWL point (0.851605,0)
v2: Removing PWL point (0.851737,0)
v2: Removing PWL point (0.851758,0)
v2: Removing PWL point (0.851961,0)
v2: Removing PWL point (0.851981,0)
v2: Removing PWL point (0.851991,0)
v2: Removing PWL point (0.852032,0)
v2: Removing PWL point (0.852174,0)
v2: Removing PWL point (0.852245,0)
v2: Removing PWL point (0.852326,0)
v2: Removing PWL point (0.852336,0)
v2: Removing PWL point (0.852915,0)
v2: Removing PWL point (0.853148,0)
v2: Removing PWL point (0.853382,0)
v2: Removing PWL point (0.853808,0)
v2: Removing PWL point (0.853818,0)
v2: Removing PWL point (0.853899,0)
v2: Removing PWL point (0.854224,0)
v2: Removing PWL point (0.854589,0)
v2: Removing PWL point (0.855036,0)
v2: Removing PWL point (0.855432,0)
v2: Removing PWL point (0.856163,0)
v2: Removing PWL point (0.856477,0)
v2: Removing PWL point (0.856498,0)
v2: Removing PWL point (0.856751,0)
v2: Removing PWL point (0.857249,0)
v2: Removing PWL point (0.857452,0)
v2: Removing PWL point (0.857462,0)
v2: Removing PWL point (0.857533,0)
v2: Removing PWL point (0.857584,0)
v2: Removing PWL point (0.858051,0)
v2: Removing PWL point (0.858538,0)
v2: Removing PWL point (0.858578,0)
v2: Removing PWL point (0.858619,0)
v2: Removing PWL point (0.858984,0)
v2: Removing PWL point (0.859472,0)
v2: Removing PWL point (0.859482,0)
v2: Removing PWL point (0.859512,0)
v2: Removing PWL point (0.859715,0)
v2: Removing PWL point (0.859837,0)
v2: Removing PWL point (0.860466,0)
v2: Removing PWL point (0.860517,0)
v2: Removing PWL point (0.860598,0)
v2: Removing PWL point (0.861055,0)
v2: Removing PWL point (0.861705,0)
v2: Removing PWL point (0.862334,0)
v2: Removing PWL point (0.862446,0)
v2: Removing PWL point (0.86277,0)
v2: Removing PWL point (0.863024,0)
v2: Removing PWL point (0.863268,0)
v2: Removing PWL point (0.8634,0)
v2: Removing PWL point (0.863867,0)
v2: Removing PWL point (0.863938,0)
v2: Removing PWL point (0.864049,0)
v2: Removing PWL point (0.86477,0)
v2: Removing PWL point (0.864821,0)
v2: Removing PWL point (0.865298,0)
v2: Removing PWL point (0.865562,0)
v2: Removing PWL point (0.865968,0)
v2: Removing PWL point (0.866028,0)
v2: Removing PWL point (0.866688,0)
v2: Removing PWL point (0.866739,0)
v2: Removing PWL point (0.867612,0)
v2: Removing PWL point (0.867622,0)
v2: Removing PWL point (0.867744,0)
v2: Removing PWL point (0.867896,0)
v2: Removing PWL point (0.867927,0)
v2: Removing PWL point (0.868515,0)
v2: Removing PWL point (0.86881,0)
v2: Removing PWL point (0.86885,0)
v2: Removing PWL point (0.869023,0)
v2: Removing PWL point (0.869408,0)
v2: Removing PWL point (0.869479,0)
v2: Removing PWL point (0.869652,0)
v2: Removing PWL point (0.869794,0)
v2: Removing PWL point (0.87017,0)
v2: Removing PWL point (0.870241,0)
v2: Removing PWL point (0.870393,0)
v2: Removing PWL point (0.871134,0)
v2: Removing PWL point (0.871398,0)
v2: Removing PWL point (0.871449,0)
v2: Removing PWL point (0.8722,0)
v2: Removing PWL point (0.872971,0)
v2: Removing PWL point (0.872981,0)
v2: Removing PWL point (0.873052,0)
v2: Removing PWL point (0.873976,0)
v2: Removing PWL point (0.874006,0)
v2: Removing PWL point (0.874189,0)
v2: Removing PWL point (0.874494,0)
v2: Removing PWL point (0.8749,0)
v2: Removing PWL point (0.875052,0)
v2: Removing PWL point (0.875194,0)
v2: Removing PWL point (0.875306,0)
v2: Removing PWL point (0.875854,0)
v2: Removing PWL point (0.876087,0)
v2: Removing PWL point (0.876229,0)
v2: Removing PWL point (0.87627,0)
v2: Removing PWL point (0.876534,0)
v2: Removing PWL point (0.876584,0)
v2: Removing PWL point (0.876645,0)
v2: Removing PWL point (0.876767,0)
v2: Removing PWL point (0.876787,0)
v2: Removing PWL point (0.876838,0)
v2: Removing PWL point (0.877133,0)
v2: Removing PWL point (0.877579,0)
v2: Removing PWL point (0.877813,0)
v2: Removing PWL point (0.878046,0)
v2: Removing PWL point (0.878077,0)
v2: Removing PWL point (0.878452,0)
v2: Removing PWL point (0.878523,0)
v2: Removing PWL point (0.879234,0)
v2: Removing PWL point (0.879284,0)
v2: Removing PWL point (0.879447,0)
v2: Removing PWL point (0.880269,0)
v2: Removing PWL point (0.880492,0)
v2: Removing PWL point (0.880553,0)
v2: Removing PWL point (0.880919,0)
v2: Removing PWL point (0.881122,0)
v2: Removing PWL point (0.881578,0)
v2: Removing PWL point (0.881649,0)
v2: Removing PWL point (0.882329,0)
v2: Removing PWL point (0.883009,0)
v2: Removing PWL point (0.883355,0)
v2: Removing PWL point (0.883405,0)
v2: Removing PWL point (0.883689,0)
v2: Removing PWL point (0.884258,0)
v2: Removing PWL point (0.884359,0)
v2: Removing PWL point (0.884664,0)
v2: Removing PWL point (0.884887,0)
v2: Removing PWL point (0.885963,0)
v2: Removing PWL point (0.887232,0)
v2: Removing PWL point (0.887293,0)
v2: Removing PWL point (0.887516,0)
v2: Removing PWL point (0.887821,0)
v2: Removing PWL point (0.887932,0)
v2: Removing PWL point (0.888155,0)
v2: Removing PWL point (0.888216,0)
v2: Removing PWL point (0.888561,0)
v2: Removing PWL point (0.888754,0)
v2: Removing PWL point (0.888998,0)
v2: Removing PWL point (0.88912,0)
v2: Removing PWL point (0.889343,0)
v2: Removing PWL point (0.889455,0)
v2: Removing PWL point (0.890094,0)
v2: Removing PWL point (0.890723,0)
v2: Removing PWL point (0.890774,0)
v2: Removing PWL point (0.890866,0)
v2: Removing PWL point (0.890896,0)
v2: Removing PWL point (0.891647,0)
v2: Removing PWL point (0.891901,0)
v2: Removing PWL point (0.89253,0)
v2: Removing PWL point (0.892774,0)
v2: Removing PWL point (0.892956,0)
v2: Removing PWL point (0.893616,0)
v2: Removing PWL point (0.893728,0)
v2: Removing PWL point (0.893779,0)
v2: Removing PWL point (0.894134,0)
v2: Removing PWL point (0.894195,0)
v2: Removing PWL point (0.894337,0)
v2: Removing PWL point (0.894357,0)
v2: Removing PWL point (0.894509,0)
v2: Removing PWL point (0.894814,0)
v2: Removing PWL point (0.895068,0)
v2: Removing PWL point (0.895321,0)
v2: Removing PWL point (0.895342,0)
v2: Removing PWL point (0.895646,0)
v2: Removing PWL point (0.895748,0)
v2: Removing PWL point (0.896347,0)
v2: Removing PWL point (0.896407,0)
v2: Removing PWL point (0.89657,0)
v2: Removing PWL point (0.89659,0)
v2: Removing PWL point (0.896651,0)
v2: Removing PWL point (0.896722,0)
v2: Removing PWL point (0.896895,0)
v2: Removing PWL point (0.896905,0)
v2: Removing PWL point (0.897027,0)
v2: Removing PWL point (0.89724,0)
v2: Removing PWL point (0.89728,0)
v2: Removing PWL point (0.89729,0)
v2: Removing PWL point (0.897433,0)
v2: Removing PWL point (0.897463,0)
v2: Removing PWL point (0.897605,0)
v2: Removing PWL point (0.897757,0)
v2: Removing PWL point (0.898082,0)
v2: Removing PWL point (0.898427,0)
v2: Removing PWL point (0.899239,0)
v2: Removing PWL point (0.899402,0)
v2: Removing PWL point (0.899554,0)
v2: Removing PWL point (0.899564,0)
v2: Removing PWL point (0.899655,0)
v2: Removing PWL point (0.899798,0)
v2: Removing PWL point (0.899818,0)
v2: Removing PWL point (0.900041,0)
v2: Removing PWL point (0.900082,0)
v2: Removing PWL point (0.900163,0)
v2: Removing PWL point (0.90064,0)
v2: Removing PWL point (0.900944,0)
v2: Removing PWL point (0.901097,0)
v2: Removing PWL point (0.90131,0)
v2: Removing PWL point (0.901828,0)
v2: Removing PWL point (0.901939,0)
v2: Removing PWL point (0.90199,0)
v2: Removing PWL point (0.902152,0)
v2: Removing PWL point (0.902162,0)
v2: Removing PWL point (0.902264,0)
v2: Removing PWL point (0.902284,0)
v2: Removing PWL point (0.902863,0)
v2: Removing PWL point (0.903228,0)
v2: Removing PWL point (0.903411,0)
v2: Removing PWL point (0.903756,0)
v2: Removing PWL point (0.903888,0)
v2: Removing PWL point (0.904385,0)
v2: Removing PWL point (0.904761,0)
v2: Removing PWL point (0.905126,0)
v2: Removing PWL point (0.905725,0)
v2: Removing PWL point (0.905847,0)
v2: Removing PWL point (0.906202,0)
v2: Removing PWL point (0.906354,0)
v2: Removing PWL point (0.906405,0)
v2: Removing PWL point (0.906425,0)
v2: Removing PWL point (0.906771,0)
v2: Removing PWL point (0.906791,0)
v2: Removing PWL point (0.906801,0)
v2: Removing PWL point (0.906994,0)
v2: Removing PWL point (0.907004,0)
v2: Removing PWL point (0.907095,0)
v2: Removing PWL point (0.907197,0)
v2: Removing PWL point (0.907258,0)
v2: Removing PWL point (0.907369,0)
v2: Removing PWL point (0.90742,0)
v2: Removing PWL point (0.907451,0)
v2: Removing PWL point (0.907867,0)
v2: Removing PWL point (0.908039,0)
v2: Removing PWL point (0.908141,0)
v2: Removing PWL point (0.908181,0)
v2: Removing PWL point (0.908374,0)
v2: Removing PWL point (0.908405,0)
v2: Removing PWL point (0.908445,0)
v2: Removing PWL point (0.908577,0)
v2: Removing PWL point (0.908821,0)
v2: Removing PWL point (0.909115,0)
v2: Removing PWL point (0.90941,0)
v2: Removing PWL point (0.909481,0)
v2: Removing PWL point (0.909501,0)
v2: Removing PWL point (0.909531,0)
v2: Removing PWL point (0.909663,0)
v2: Removing PWL point (0.910211,0)
v2: Removing PWL point (0.910282,0)
v2: Removing PWL point (0.910374,0)
v2: Removing PWL point (0.910404,0)
v2: Removing PWL point (0.911145,0)
v2: Removing PWL point (0.911592,0)
v2: Removing PWL point (0.911734,0)
v2: Removing PWL point (0.911744,0)
v2: Removing PWL point (0.91214,0)
v2: Removing PWL point (0.912455,0)
v2: Removing PWL point (0.913094,0)
v2: Removing PWL point (0.913673,0)
v2: Removing PWL point (0.913713,0)
v2: Removing PWL point (0.913784,0)
v2: Removing PWL point (0.913825,0)
v2: Removing PWL point (0.914028,0)
v2: Removing PWL point (0.914332,0)
v2: Removing PWL point (0.914383,0)
v2: Removing PWL point (0.914403,0)
v2: Removing PWL point (0.915256,0)
v2: Removing PWL point (0.915398,0)
v2: Removing PWL point (0.91556,0)
v2: Removing PWL point (0.916484,0)
v2: Removing PWL point (0.916667,0)
v2: Removing PWL point (0.916768,0)
v2: Removing PWL point (0.917154,0)
v2: Removing PWL point (0.917327,0)
v2: Removing PWL point (0.917428,0)
v2: Removing PWL point (0.91755,0)
v2: Removing PWL point (0.917753,0)
v2: Removing PWL point (0.917854,0)
v2: Removing PWL point (0.918179,0)
v2: Removing PWL point (0.91823,0)
v2: Removing PWL point (0.918301,0)
v2: Removing PWL point (0.918311,0)
v2: Removing PWL point (0.918585,0)
v2: Removing PWL point (0.918677,0)
v2: Removing PWL point (0.918859,0)
v2: Removing PWL point (0.9196,0)
v2: Removing PWL point (0.919671,0)
v2: Removing PWL point (0.919692,0)
v2: Removing PWL point (0.919823,0)
v2: Removing PWL point (0.920047,0)
v2: Removing PWL point (0.920899,0)
v2: Removing PWL point (0.921163,0)
v2: Removing PWL point (0.921661,0)
v2: Removing PWL point (0.922178,0)
v2: Removing PWL point (0.922381,0)
v2: Removing PWL point (0.922655,0)
v2: Removing PWL point (0.923224,0)
v2: Removing PWL point (0.923823,0)
v2: Removing PWL point (0.923873,0)
v2: Removing PWL point (0.924005,0)
v2: Removing PWL point (0.924086,0)
v2: Removing PWL point (0.9243,0)
v2: Removing PWL point (0.924371,0)
v2: Removing PWL point (0.924391,0)
v2: Removing PWL point (0.924421,0)
v2: Removing PWL point (0.924777,0)
v2: Removing PWL point (0.924797,0)
v2: Removing PWL point (0.924858,0)
v2: Removing PWL point (0.924959,0)
v2: Removing PWL point (0.92501,0)
v2: Removing PWL point (0.925122,0)
v2: Removing PWL point (0.925254,0)
v2: Removing PWL point (0.925365,0)
v2: Removing PWL point (0.92568,0)
v2: Removing PWL point (0.925822,0)
v2: Removing PWL point (0.925995,0)
v2: Removing PWL point (0.926177,0)
v2: Removing PWL point (0.926248,0)
v2: Removing PWL point (0.926451,0)
v2: Removing PWL point (0.926522,0)
v2: Removing PWL point (0.926614,0)
v2: Removing PWL point (0.926979,0)
v2: Removing PWL point (0.927253,0)
v2: Removing PWL point (0.927375,0)
v2: Removing PWL point (0.927619,0)
v2: Removing PWL point (0.928015,0)
v2: Removing PWL point (0.928025,0)
v2: Removing PWL point (0.928126,0)
v2: Removing PWL point (0.928136,0)
v2: Removing PWL point (0.928197,0)
v2: Removing PWL point (0.928207,0)
v2: Removing PWL point (0.9284,0)
v2: Removing PWL point (0.928563,0)
v2: Removing PWL point (0.928796,0)
v2: Removing PWL point (0.928857,0)
v2: Removing PWL point (0.928989,0)
v2: Removing PWL point (0.929425,0)
v2: Removing PWL point (0.929821,0)
v2: Removing PWL point (0.929831,0)
v2: Removing PWL point (0.930349,0)
v2: Removing PWL point (0.930369,0)
v2: Removing PWL point (0.931181,0)
v2: Removing PWL point (0.931252,0)
v2: Removing PWL point (0.931323,0)
v2: Removing PWL point (0.931466,0)
v2: Removing PWL point (0.931841,0)
v2: Removing PWL point (0.931882,0)
v2: Removing PWL point (0.931912,0)
v2: Removing PWL point (0.931983,0)
v2: Removing PWL point (0.932227,0)
v2: Removing PWL point (0.932237,0)
v2: Removing PWL point (0.932592,0)
v2: Removing PWL point (0.932663,0)
v2: Removing PWL point (0.932815,0)
v2: Removing PWL point (0.933556,0)
v2: Removing PWL point (0.933627,0)
v2: Removing PWL point (0.933749,0)
v2: Removing PWL point (0.933759,0)
v2: Removing PWL point (0.933841,0)
v2: Removing PWL point (0.933891,0)
v2: Removing PWL point (0.934023,0)
v2: Removing PWL point (0.934196,0)
v2: Removing PWL point (0.934236,0)
v2: Removing PWL point (0.93448,0)
v2: Removing PWL point (0.934886,0)
v2: Removing PWL point (0.935312,0)
v2: Removing PWL point (0.935617,0)
v2: Removing PWL point (0.935668,0)
v2: Removing PWL point (0.935901,0)
v2: Removing PWL point (0.935992,0)
v2: Removing PWL point (0.936053,0)
v2: Removing PWL point (0.936307,0)
v2: Removing PWL point (0.936916,0)
v2: Removing PWL point (0.937048,0)
v2: Removing PWL point (0.937353,0)
v2: Removing PWL point (0.937393,0)
v2: Removing PWL point (0.937525,0)
v2: Removing PWL point (0.937627,0)
v2: Removing PWL point (0.937708,0)
v2: Removing PWL point (0.937718,0)
v2: Removing PWL point (0.938225,0)
v2: Removing PWL point (0.938652,0)
v2: Removing PWL point (0.938763,0)
v2: Removing PWL point (0.938905,0)
v2: Removing PWL point (0.938977,0)
v2: Removing PWL point (0.938997,0)
v2: Removing PWL point (0.939119,0)
v2: Removing PWL point (0.939616,0)
v2: Removing PWL point (0.939697,0)
v2: Removing PWL point (0.939951,0)
v2: Removing PWL point (0.940012,0)
v2: Removing PWL point (0.940266,0)
v2: Removing PWL point (0.940438,0)
v2: Removing PWL point (0.940895,0)
v2: Removing PWL point (0.940915,0)
v2: Removing PWL point (0.940925,0)
v2: Removing PWL point (0.941098,0)
v2: Removing PWL point (0.941382,0)
v2: Removing PWL point (0.941423,0)
v2: Removing PWL point (0.941585,0)
v2: Removing PWL point (0.942245,0)
v2: Removing PWL point (0.942285,0)
v2: Removing PWL point (0.942428,0)
v2: Removing PWL point (0.942438,0)
v2: Removing PWL point (0.942691,0)
v2: Removing PWL point (0.942702,0)
v2: Removing PWL point (0.942813,0)
v2: Removing PWL point (0.942905,0)
v2: Removing PWL point (0.943148,0)
v2: Removing PWL point (0.943209,0)
v2: Removing PWL point (0.943361,0)
v2: Removing PWL point (0.943585,0)
v2: Removing PWL point (0.943767,0)
v2: Removing PWL point (0.94398,0)
v2: Removing PWL point (0.944244,0)
v2: Removing PWL point (0.944569,0)
v2: Removing PWL point (0.944762,0)
v2: Removing PWL point (0.945026,0)
v2: Removing PWL point (0.945148,0)
v2: Removing PWL point (0.945219,0)
v2: Removing PWL point (0.945371,0)
v2: Removing PWL point (0.945625,0)
v2: Removing PWL point (0.945797,0)
v2: Removing PWL point (0.946315,0)
v2: Removing PWL point (0.946792,0)
v2: Removing PWL point (0.946833,0)
v2: Removing PWL point (0.947381,0)
v2: Removing PWL point (0.947614,0)
v2: Removing PWL point (0.947634,0)
v2: Removing PWL point (0.947909,0)
v2: Removing PWL point (0.947959,0)
v2: Removing PWL point (0.948842,0)
v2: Removing PWL point (0.94933,0)
v2: Removing PWL point (0.949614,0)
v2: Removing PWL point (0.949878,0)
v2: Removing PWL point (0.950324,0)
v2: Removing PWL point (0.950862,0)
v2: Removing PWL point (0.951096,0)
v2: Removing PWL point (0.951167,0)
v2: Removing PWL point (0.951552,0)
v2: Removing PWL point (0.951583,0)
v2: Removing PWL point (0.951694,0)
v2: Removing PWL point (0.951776,0)
v2: Removing PWL point (0.951837,0)
v2: Removing PWL point (0.952385,0)
v2: Removing PWL point (0.952405,0)
v2: Removing PWL point (0.952547,0)
v2: Removing PWL point (0.952984,0)
v2: Removing PWL point (0.953115,0)
v2: Removing PWL point (0.953207,0)
v2: Removing PWL point (0.954293,0)
v2: Removing PWL point (0.954374,0)
v2: Removing PWL point (0.954668,0)
v2: Removing PWL point (0.954689,0)
v2: Removing PWL point (0.954719,0)
v2: Removing PWL point (0.954892,0)
v2: Removing PWL point (0.955318,0)
v2: Removing PWL point (0.956232,0)
v2: Removing PWL point (0.956394,0)
v2: Removing PWL point (0.95682,0)
v2: Removing PWL point (0.95683,0)
v2: Removing PWL point (0.957338,0)
v2: Removing PWL point (0.95748,0)
v2: Removing PWL point (0.957744,0)
v2: Removing PWL point (0.957774,0)
v2: Removing PWL point (0.957967,0)
v2: Removing PWL point (0.958119,0)
v2: Removing PWL point (0.958596,0)
v2: Removing PWL point (0.958647,0)
v2: Removing PWL point (0.958871,0)
v2: Removing PWL point (0.958891,0)
v2: Removing PWL point (0.959074,0)
v2: Removing PWL point (0.959348,0)
v2: Removing PWL point (0.959408,0)
v2: Removing PWL point (0.95949,0)
v2: Removing PWL point (0.960342,0)
v2: Removing PWL point (0.960555,0)
v2: Removing PWL point (0.960626,0)
v2: Removing PWL point (0.960799,0)
v2: Removing PWL point (0.961134,0)
v2: Removing PWL point (0.961307,0)
v2: Removing PWL point (0.961357,0)
v2: Removing PWL point (0.961418,0)
v2: Removing PWL point (0.961438,0)
v2: Removing PWL point (0.96151,0)
v2: Removing PWL point (0.96155,0)
v2: Removing PWL point (0.961773,0)
v2: Removing PWL point (0.962149,0)
v2: Removing PWL point (0.962352,0)
v2: Removing PWL point (0.962474,0)
v2: Removing PWL point (0.962728,0)
v2: Removing PWL point (0.962931,0)
v2: Removing PWL point (0.963113,0)
v2: Removing PWL point (0.963265,0)
v2: Removing PWL point (0.963966,0)
v2: Removing PWL point (0.964747,0)
v2: Removing PWL point (0.96491,0)
v2: Removing PWL point (0.965143,0)
v2: Removing PWL point (0.965235,0)
v2: Removing PWL point (0.96557,0)
v2: Removing PWL point (0.96558,0)
v2: Removing PWL point (0.965976,0)
v2: Removing PWL point (0.965986,0)
v2: Removing PWL point (0.966869,0)
v2: Removing PWL point (0.967214,0)
v2: Removing PWL point (0.967275,0)
v2: Removing PWL point (0.967346,0)
v2: Removing PWL point (0.967356,0)
v2: Removing PWL point (0.967782,0)
v2: Removing PWL point (0.967823,0)
v2: Removing PWL point (0.968097,0)
v2: Removing PWL point (0.968219,0)
v2: Removing PWL point (0.969305,0)
v2: Removing PWL point (0.969619,0)
v2: Removing PWL point (0.969701,0)
v2: Removing PWL point (0.969822,0)
v2: Removing PWL point (0.969873,0)
v2: Removing PWL point (0.970157,0)
v2: Removing PWL point (0.97034,0)
v2: Removing PWL point (0.970624,0)
v2: Removing PWL point (0.970736,0)
v2: Removing PWL point (0.970787,0)
v2: Removing PWL point (0.970908,0)
v2: Removing PWL point (0.97099,0)
v2: Removing PWL point (0.97103,0)
v2: Removing PWL point (0.971081,0)
v2: Removing PWL point (0.971152,0)
v2: Removing PWL point (0.971365,0)
v2: Removing PWL point (0.971416,0)
v2: Removing PWL point (0.971538,0)
v2: Removing PWL point (0.971609,0)
v2: Removing PWL point (0.971964,0)
v2: Removing PWL point (0.972066,0)
v2: Removing PWL point (0.972106,0)
v2: Removing PWL point (0.972126,0)
v2: Removing PWL point (0.972258,0)
v2: Removing PWL point (0.972593,0)
v2: Removing PWL point (0.972867,0)
v2: Removing PWL point (0.972999,0)
v2: Removing PWL point (0.97307,0)
v2: Removing PWL point (0.973284,0)
v2: Removing PWL point (0.973446,0)
v2: Removing PWL point (0.973618,0)
v2: Removing PWL point (0.9737,0)
v2: Removing PWL point (0.974004,0)
v2: Removing PWL point (0.974085,0)
v2: Removing PWL point (0.974238,0)
v2: Removing PWL point (0.974309,0)
v2: Removing PWL point (0.97437,0)
v2: Removing PWL point (0.97439,0)
v2: Removing PWL point (0.974451,0)
v2: Removing PWL point (0.975161,0)
v2: Removing PWL point (0.975303,0)
v2: Removing PWL point (0.975679,0)
v2: Removing PWL point (0.975912,0)
v2: Removing PWL point (0.976004,0)
v2: Removing PWL point (0.976044,0)
v2: Removing PWL point (0.976298,0)
v2: Removing PWL point (0.976329,0)
v2: Removing PWL point (0.976633,0)
v2: Removing PWL point (0.976724,0)
v2: Removing PWL point (0.976735,0)
v2: Removing PWL point (0.976846,0)
v2: Removing PWL point (0.976958,0)
v2: Removing PWL point (0.977283,0)
v2: Removing PWL point (0.977323,0)
v2: Removing PWL point (0.977344,0)
v2: Removing PWL point (0.977486,0)
v2: Removing PWL point (0.977993,0)
v2: Removing PWL point (0.978206,0)
v2: Removing PWL point (0.978247,0)
v2: Removing PWL point (0.978318,0)
v2: Removing PWL point (0.978643,0)
v2: Removing PWL point (0.978988,0)
v2: Removing PWL point (0.979181,0)
v2: Removing PWL point (0.979414,0)
v2: Removing PWL point (0.979719,0)
v2: Removing PWL point (0.979739,0)
v2: Removing PWL point (0.979749,0)
v2: Removing PWL point (0.979851,0)
v2: Removing PWL point (0.980287,0)
v2: Removing PWL point (0.980297,0)
v2: Removing PWL point (0.980784,0)
v2: Removing PWL point (0.980937,0)
v2: Removing PWL point (0.981931,0)
v2: Removing PWL point (0.982398,0)
v2: Removing PWL point (0.98251,0)
v2: Removing PWL point (0.982956,0)
v2: Removing PWL point (0.983149,0)
v2: Removing PWL point (0.983231,0)
v2: Removing PWL point (0.983281,0)
v2: Removing PWL point (0.983291,0)
v2: Removing PWL point (0.983362,0)
v2: Removing PWL point (0.983687,0)
v2: Removing PWL point (0.984337,0)
v2: Removing PWL point (0.984489,0)
v2: Removing PWL point (0.98453,0)
v2: Removing PWL point (0.984601,0)
v2: Removing PWL point (0.984621,0)
v2: Removing PWL point (0.984834,0)
v2: Removing PWL point (0.985047,0)
v2: Removing PWL point (0.985981,0)
v2: Removing PWL point (0.986001,0)
v2: Removing PWL point (0.986052,0)
v2: Removing PWL point (0.986397,0)
v2: Removing PWL point (0.986529,0)
v2: Removing PWL point (0.987463,0)
v2: Removing PWL point (0.987595,0)
v2: Removing PWL point (0.988427,0)
v2: Removing PWL point (0.988559,0)
v2: Removing PWL point (0.988569,0)
v2: Removing PWL point (0.989544,0)
v2: Removing PWL point (0.989564,0)
v2: Removing PWL point (0.990224,0)
v2: Removing PWL point (0.990244,0)
v2: Removing PWL point (0.990965,0)
v2: Removing PWL point (0.991219,0)
v2: Removing PWL point (0.991239,0)
v2: Removing PWL point (0.991249,0)
v2: Removing PWL point (0.99134,0)
v2: Removing PWL point (0.991401,0)
v2: Removing PWL point (0.991696,0)
v2: Removing PWL point (0.991726,0)
v2: Removing PWL point (0.991757,0)
v2: Removing PWL point (0.991929,0)
v2: Removing PWL point (0.99196,0)
v2: Removing PWL point (0.992041,0)
v2: Removing PWL point (0.992173,0)
v2: Removing PWL point (0.992183,0)
v2: Removing PWL point (0.992193,0)
v2: Removing PWL point (0.992366,0)
v2: Removing PWL point (0.992497,0)
v2: Removing PWL point (0.992619,0)
v2: Removing PWL point (0.992711,0)
v2: Removing PWL point (0.992883,0)
v2: Removing PWL point (0.992893,0)
v2: Removing PWL point (0.993035,0)
v2: Removing PWL point (0.993106,0)
v2: Removing PWL point (0.993289,0)
v2: Removing PWL point (0.993512,0)
v2: Removing PWL point (0.993807,0)
v2: Removing PWL point (0.994081,0)
v2: Removing PWL point (0.994213,0)
v2: Removing PWL point (0.994385,0)
v2: Removing PWL point (0.994609,0)
v2: Removing PWL point (0.995045,0)
v2: Removing PWL point (0.995055,0)
v2: Removing PWL point (0.99535,0)
v2: Removing PWL point (0.995492,0)
v2: Removing PWL point (0.996223,0)
v2: Removing PWL point (0.996283,0)
v2: Removing PWL point (0.996375,0)
v2: Removing PWL point (0.996588,0)
v2: Removing PWL point (0.996598,0)
v2: Removing PWL point (0.99674,0)
v2: Removing PWL point (0.996872,0)
v2: Removing PWL point (0.997055,0)
v2: Removing PWL point (0.997075,0)
v2: Removing PWL point (0.997116,0)
v2: Removing PWL point (0.997481,0)
v2: Removing PWL point (0.997501,0)
v2: Removing PWL point (0.997674,0)
v2: Removing PWL point (0.997755,0)
v2: Removing PWL point (0.998192,0)
v2: Removing PWL point (0.998232,0)
v2: Removing PWL point (0.998547,0)
v2: Removing PWL point (0.998577,0)
v2: Removing PWL point (0.998648,0)
v2: Removing PWL point (0.999095,0)
v2: Removing PWL point (0.999105,0)
v2: Removing PWL point (0.999156,0)
v2: Removing PWL point (0.999268,0)
v2: Removing PWL point (0.999328,0)
v2: Removing PWL point (0.999379,0)
v2: Removing PWL point (0.999542,0)
v2: Removing PWL point (0.999927,0)
v2: Removing PWL point (0.999958,0)
v2: Removing PWL point (1.00006,0)
v2: Removing PWL point (1.00012,0)
v2: Removing PWL point (1.00017,0)
v2: Removing PWL point (1.00035,0)
v2: Removing PWL point (1.00058,0)
v2: Removing PWL point (1.00107,0)
v2: Removing PWL point (1.00117,0)
v2: Removing PWL point (1.00125,0)
v2: Removing PWL point (1.00142,0)
v2: Removing PWL point (1.00162,0)
v2: Removing PWL point (1.00165,0)
v2: Removing PWL point (1.00173,0)
v2: Removing PWL point (1.00194,0)
v2: Removing PWL point (1.00199,0)
v2: Removing PWL point (1.00274,0)
v2: Removing PWL point (1.00279,0)
v2: Removing PWL point (1.00287,0)
v2: Removing PWL point (1.00304,0)
v2: Removing PWL point (1.0032,0)
v2: Removing PWL point (1.00328,0)
v2: Removing PWL point (1.00336,0)
v2: Removing PWL point (1.00358,0)
v2: Removing PWL point (1.00363,0)
v2: Removing PWL point (1.0039,0)
v2: Removing PWL point (1.004,0)
v2: Removing PWL point (1.00425,0)
v2: Removing PWL point (1.00442,0)
v2: Removing PWL point (1.00446,0)
v2: Removing PWL point (1.00458,0)
v2: Removing PWL point (1.00495,0)
v2: Removing PWL point (1.0056,0)
v2: Removing PWL point (1.00568,0)
v2: Removing PWL point (1.00575,0)
v2: Removing PWL point (1.00597,0)
v2: Removing PWL point (1.00634,0)
v2: Removing PWL point (1.0064,0)
v2: Removing PWL point (1.00659,0)
v2: Removing PWL point (1.00667,0)
v2: Removing PWL point (1.00677,0)
v2: Removing PWL point (1.00683,0)
v2: Removing PWL point (1.0072,0)
v2: Removing PWL point (1.00721,0)
v2: Removing PWL point (1.00739,0)
v2: Removing PWL point (1.00748,0)
v2: Removing PWL point (1.00772,0)
v2: Removing PWL point (1.00796,0)
v2: Removing PWL point (1.00817,0)
v2: Removing PWL point (1.00823,0)
v2: Removing PWL point (1.00825,0)
v2: Removing PWL point (1.00832,0)
v2: Removing PWL point (1.00836,0)
v2: Removing PWL point (1.00837,0)
v2: Removing PWL point (1.00852,0)
v2: Removing PWL point (1.0087,0)
v2: Removing PWL point (1.0088,0)
v2: Removing PWL point (1.00903,0)
v2: Removing PWL point (1.0091,0)
v2: Removing PWL point (1.00921,0)
v2: Removing PWL point (1.0097,0)
v2: Removing PWL point (1.00972,0)
v2: Removing PWL point (1.00976,0)
v2: Removing PWL point (1.00977,0)
v2: Removing PWL point (1.01005,0)
v2: Removing PWL point (1.01022,0)
v2: Removing PWL point (1.01025,0)
v2: Removing PWL point (1.01057,0)
v2: Removing PWL point (1.01067,0)
v2: Removing PWL point (1.01096,0)
v2: Removing PWL point (1.01114,0)
v2: Removing PWL point (1.0112,0)
v2: Removing PWL point (1.01122,0)
v2: Removing PWL point (1.01125,0)
v2: Removing PWL point (1.01131,0)
v2: Removing PWL point (1.01151,0)
v2: Removing PWL point (1.01152,0)
v2: Removing PWL point (1.01171,0)
v2: Removing PWL point (1.01198,0)
v2: Removing PWL point (1.01199,0)
v2: Removing PWL point (1.01208,0)
v2: Removing PWL point (1.01211,0)
v2: Removing PWL point (1.01212,0)
v2: Removing PWL point (1.01219,0)
v2: Removing PWL point (1.01233,0)
v2: Removing PWL point (1.01239,0)
v2: Removing PWL point (1.01243,0)
v2: Removing PWL point (1.01248,0)
v2: Removing PWL point (1.01253,0)
v2: Removing PWL point (1.01286,0)
v2: Removing PWL point (1.01322,0)
v2: Removing PWL point (1.01335,0)
v2: Removing PWL point (1.0134,0)
v2: Removing PWL point (1.01346,0)
v2: Removing PWL point (1.01353,0)
v2: Removing PWL point (1.01367,0)
v2: Removing PWL point (1.01414,0)
v2: Removing PWL point (1.0143,0)
v2: Removing PWL point (1.01485,0)
Direct Newton iteration for .op point succeeded.
Total elapsed time: 433.185 seconds.

