LTspice 24.0.9 for Windows
Circuit: * C:\Users\Usuario\Documents\Laboratorio_6_7_ITeDA\LTSpice\Octubre - Test Circuitos en configuración NO Inversor\Draft1.asc
Start Time: Thu Dec 26 19:14:49 2024
solver = Normal
Maximum thread count: 12
tnom = 27
temp = 27
method = modified trap
Direct Newton iteration for .op point succeeded.
Total elapsed time: 0.080 seconds.

