LTspice 24.0.9 for Windows
Circuit: * C:\Users\Usuario\Documents\Laboratorio_6_7_ITeDA\LTSpice\Octubre - Test Circuitos en configuración NO Inversor\preamp_v1.5.asc
Start Time: Mon Dec 30 12:06:46 2024
solver = Normal
Maximum thread count: 12
tnom = 27
temp = 27
method = modified trap
Direct Newton iteration for .op point succeeded.
Total elapsed time: 0.176 seconds.

