LTspice 24.0.9 for Windows
Circuit: * C:\Users\Usuario\Documents\Laboratorio_6_7_ITeDA\LTSpice\Octubre - Test Circuitos en configuración NO Inversor\threshold_calculator.asc
Start Time: Tue Dec 31 17:18:37 2024
solver = Normal
Maximum thread count: 12



WARNING: Less than two connections to node input_1pe.  This node is used by v1.
WARNING: Less than two connections to node input_2pe.  This node is used by v6.
Direct Newton iteration for .op point succeeded.
.step vt=0.075



.step vt=0.0751



.step vt=0.0752



.step vt=0.0753



.step vt=0.0754



.step vt=0.0755



.step vt=0.0756



.step vt=0.0757



.step vt=0.0758



.step vt=0.0759



.step vt=0.076



.step vt=0.0761



.step vt=0.0762



.step vt=0.0763



.step vt=0.0764



.step vt=0.0765



.step vt=0.0766



.step vt=0.0767



.step vt=0.0768



.step vt=0.0769000000000001



.step vt=0.0770000000000001



.step vt=0.0771000000000001



.step vt=0.0772000000000001



.step vt=0.0773000000000001



.step vt=0.0774000000000001



.step vt=0.0775000000000001



.step vt=0.0776000000000001



.step vt=0.0777000000000001



.step vt=0.0778000000000001



.step vt=0.0779000000000001



.step vt=0.0780000000000001



.step vt=0.0781000000000001



.step vt=0.0782000000000001



.step vt=0.0783000000000001



.step vt=0.0784000000000001



.step vt=0.0785000000000001



.step vt=0.0786000000000001



.step vt=0.0787000000000001



.step vt=0.0788000000000001



.step vt=0.0789000000000001



.step vt=0.0790000000000001



.step vt=0.0791000000000001



.step vt=0.0792000000000001



.step vt=0.0793000000000001



.step vt=0.0794000000000001



.step vt=0.0795000000000001



.step vt=0.0796000000000001



.step vt=0.0797000000000001



.step vt=0.0798000000000001



.step vt=0.0799000000000001



.step vt=0.0800000000000001



.step vt=0.0801000000000001



.step vt=0.0802000000000001



.step vt=0.0803000000000001



.step vt=0.0804000000000002



.step vt=0.0805000000000002



.step vt=0.0806000000000002



.step vt=0.0807000000000002



.step vt=0.0808000000000002



.step vt=0.0809000000000002



.step vt=0.0810000000000002



.step vt=0.0811000000000002



.step vt=0.0812000000000002



.step vt=0.0813000000000002



.step vt=0.0814000000000002



.step vt=0.0815000000000002



.step vt=0.0816000000000002



.step vt=0.0817000000000002



.step vt=0.0818000000000002



.step vt=0.0819000000000002



.step vt=0.0820000000000002



.step vt=0.0821000000000002



.step vt=0.0822000000000002



.step vt=0.0823000000000002



.step vt=0.0824000000000002



.step vt=0.0825000000000002



.step vt=0.0826000000000002



.step vt=0.0827000000000002



.step vt=0.0828000000000002



.step vt=0.0829000000000002



.step vt=0.0830000000000002



.step vt=0.0831000000000002



.step vt=0.0832000000000002



.step vt=0.0833000000000002



.step vt=0.0834000000000002



.step vt=0.0835000000000002



.step vt=0.0836000000000002



.step vt=0.0837000000000002



.step vt=0.0838000000000002



.step vt=0.0839000000000003



.step vt=0.0840000000000003



.step vt=0.0841000000000003



.step vt=0.0842000000000003



.step vt=0.0843000000000003



.step vt=0.0844000000000003



.step vt=0.0845000000000003



.step vt=0.0846000000000003



.step vt=0.0847000000000003



.step vt=0.0848000000000003



.step vt=0.0849000000000003
tnom = 27
temp = 27
method = modified trap
.step vt=0.085


Measurement: ones
  step	floor(widthpulse/(3.125e-9))
     1	2
     2	2
     3	2
     4	2
     5	2
     6	2
     7	2
     8	2
     9	2
    10	2
    11	2
    12	2
    13	2
    14	2
    15	2
    16	2
    17	2
    18	2
    19	1
    20	1
    21	1
    22	1
    23	1
    24	1
    25	1
    26	1
    27	1
    28	1
    29	1
    30	1
    31	1
    32	1
    33	1
    34	1
    35	1
    36	1
    37	1
    38	1
    39	1
    40	1
    41	1
    42	1
    43	1
    44	1
    45	1
    46	1
    47	1
    48	1
    49	1
    50	1
    51	1
    52	1
    53	1
    54	1
    55	1
    56	1
    57	1
    58	1
    59	1
    60	1
    61	1
    62	1
    63	1
    64	1
    65	1
    66	1
    67	1
    68	1
    69	1
    70	1
    71	1
    72	1
    73	1
    74	1
    75	1
    76	1
    77	1
    78	1
    79	0
    80	0
    81	0
    82	0
    83	0
    84	0
    85	0
    86	0
    87	0
    88	0
    89	0
    90	0
    91	0
    92	0
    93	0
    94	0
    95	0
    96	0
    97	0
    98	0
    99	0
   100	0
   101	0

Measurement: widthpulse
  step	widthpulse	FROM	TO
     1	6.88742e-09	7.86513e-09	1.47525e-08
     2	6.85171e-09	7.88141e-09	1.47331e-08
     3	6.81579e-09	7.89784e-09	1.47136e-08
     4	6.77973e-09	7.91435e-09	1.46941e-08
     5	6.74356e-09	7.93087e-09	1.46744e-08
     6	6.70713e-09	7.94751e-09	1.46546e-08
     7	6.6705e-09	7.96431e-09	1.46348e-08
     8	6.63373e-09	7.98117e-09	1.46149e-08
     9	6.59674e-09	7.99809e-09	1.45948e-08
    10	6.5596e-09	8.01511e-09	1.45747e-08
    11	6.52222e-09	8.0323e-09	1.45545e-08
    12	6.48459e-09	8.04957e-09	1.45342e-08
    13	6.44687e-09	8.06687e-09	1.45137e-08
    14	6.4089e-09	8.08433e-09	1.44932e-08
    15	6.37067e-09	8.10193e-09	1.44726e-08
    16	6.33221e-09	8.1196e-09	1.44518e-08
    17	6.29366e-09	8.13733e-09	1.4431e-08
    18	6.25481e-09	8.15525e-09	1.44101e-08
    19	6.21564e-09	8.17329e-09	1.43889e-08
    20	6.17632e-09	8.19144e-09	1.43678e-08
    21	6.13686e-09	8.20962e-09	1.43465e-08
    22	6.09697e-09	8.22803e-09	1.4325e-08
    23	6.05691e-09	8.24656e-09	1.43035e-08
    24	6.0167e-09	8.26512e-09	1.42818e-08
    25	5.97609e-09	8.28388e-09	1.426e-08
    26	5.93524e-09	8.30281e-09	1.4238e-08
    27	5.8942e-09	8.32182e-09	1.4216e-08
    28	5.85285e-09	8.34092e-09	1.41938e-08
    29	5.81118e-09	8.36027e-09	1.41715e-08
    30	5.76926e-09	8.37974e-09	1.4149e-08
    31	5.72704e-09	8.39929e-09	1.41263e-08
    32	5.68455e-09	8.41901e-09	1.41036e-08
    33	5.64173e-09	8.43895e-09	1.40807e-08
    34	5.59855e-09	8.45899e-09	1.40575e-08
    35	5.55517e-09	8.47915e-09	1.40343e-08
    36	5.51138e-09	8.49958e-09	1.4011e-08
    37	5.46722e-09	8.52012e-09	1.39873e-08
    38	5.42285e-09	8.54077e-09	1.39636e-08
    39	5.37802e-09	8.56172e-09	1.39397e-08
    40	5.33276e-09	8.58282e-09	1.39156e-08
    41	5.28735e-09	8.60401e-09	1.38914e-08
    42	5.24139e-09	8.62549e-09	1.38669e-08
    43	5.19503e-09	8.64718e-09	1.38422e-08
    44	5.14845e-09	8.66894e-09	1.38174e-08
    45	5.10128e-09	8.69103e-09	1.37923e-08
    46	5.0537e-09	8.71333e-09	1.3767e-08
    47	5.00584e-09	8.73575e-09	1.37416e-08
    48	4.95732e-09	8.75849e-09	1.37158e-08
    49	4.90847e-09	8.78147e-09	1.36899e-08
    50	4.85916e-09	8.80457e-09	1.36637e-08
    51	4.80927e-09	8.82804e-09	1.36373e-08
    52	4.75894e-09	8.85175e-09	1.36107e-08
    53	4.70812e-09	8.87559e-09	1.35837e-08
    54	4.65667e-09	8.89988e-09	1.35565e-08
    55	4.60471e-09	8.92434e-09	1.3529e-08
    56	4.55223e-09	8.94907e-09	1.35013e-08
    57	4.49908e-09	8.9742e-09	1.34733e-08
    58	4.44533e-09	8.99955e-09	1.34449e-08
    59	4.391e-09	9.02526e-09	1.34163e-08
    60	4.33585e-09	9.05135e-09	1.33872e-08
    61	4.28026e-09	9.07761e-09	1.33579e-08
    62	4.2237e-09	9.10443e-09	1.33281e-08
    63	4.16655e-09	9.13152e-09	1.32981e-08
    64	4.10859e-09	9.15901e-09	1.32676e-08
    65	4.04975e-09	9.18697e-09	1.32367e-08
    66	3.99028e-09	9.2152e-09	1.32055e-08
    67	3.92965e-09	9.24404e-09	1.31737e-08
    68	3.8684e-09	9.27318e-09	1.31416e-08
    69	3.80584e-09	9.30298e-09	1.31088e-08
    70	3.74255e-09	9.33317e-09	1.30757e-08
    71	3.67795e-09	9.36398e-09	1.30419e-08
    72	3.61241e-09	9.39531e-09	1.30077e-08
    73	3.54554e-09	9.42722e-09	1.29728e-08
    74	3.47752e-09	9.45981e-09	1.29373e-08
    75	3.40812e-09	9.493e-09	1.29011e-08
    76	3.33724e-09	9.52697e-09	1.28642e-08
    77	3.26498e-09	9.56163e-09	1.28266e-08
    78	3.19097e-09	9.59713e-09	1.27881e-08
    79	3.1154e-09	9.63352e-09	1.27489e-08
    80	3.03788e-09	9.67073e-09	1.27086e-08
    81	2.95827e-09	9.70915e-09	1.26674e-08
    82	2.87671e-09	9.74841e-09	1.26251e-08
    83	2.79248e-09	9.78909e-09	1.25816e-08
    84	2.70596e-09	9.8309e-09	1.25369e-08
    85	2.6166e-09	9.87406e-09	1.24907e-08
    86	2.52376e-09	9.91907e-09	1.24428e-08
    87	2.42767e-09	9.96562e-09	1.23933e-08
    88	2.3279e-09	1.00141e-08	1.2342e-08
    89	2.22326e-09	1.0065e-08	1.22882e-08
    90	2.11348e-09	1.01184e-08	1.22319e-08
    91	1.99791e-09	1.01747e-08	1.21726e-08
    92	1.87524e-09	1.02345e-08	1.21098e-08
    93	1.74414e-09	1.02986e-08	1.20428e-08
    94	1.60221e-09	1.03682e-08	1.19704e-08
    95	1.4466e-09	1.04446e-08	1.18912e-08
    96	1.27228e-09	1.05302e-08	1.18025e-08
    97	1.06954e-09	1.06301e-08	1.16997e-08
    98	8.1847e-10	1.07541e-08	1.15725e-08
    99	4.43166e-10	1.094e-08	1.13832e-08
   100	0	0	0
   101	0	0	0

Total elapsed time: 12.192 seconds.

