LTspice 24.0.9 for Windows
Circuit: * C:\Users\Usuario\OneDrive\Desktop\ITeDA\LTSpice\Modelos Importantes\Draft1.asc
Start Time: Sun Aug  4 16:20:59 2024
solver = Normal
Maximum thread count: 12
tnom = 27
temp = 27
method = modified trap
Direct Newton iteration for .op point succeeded.
Total elapsed time: 0.165 seconds.

