LTspice 24.0.9 for Windows
Circuit: * C:\Users\Usuario\OneDrive\Desktop\ITeDA\LTSpice\Modelos Importantes\full_electronic_v4_con_comentariso_ajustadocondata.asc
Start Time: Sun Aug  4 17:54:27 2024
solver = Normal
Maximum thread count: 12
tnom = 27
temp = 27
method = modified trap
v1: Removing PWL point (5.00167e-11,0)
WARNING: Less than two connections to node input_2pe.  This node is used by v6.
WARNING: Less than two connections to node input_3pe.  This node is used by v7.
v6: Missing value, assumed 0V @ DC
v7: Missing value, assumed 0V @ DC
Direct Newton iteration for .op point succeeded.
Total elapsed time: 0.244 seconds.

