LTspice 24.0.9 for Windows
Circuit: * C:\Users\Usuario\OneDrive\Desktop\ITeDA\Bode_Full_Chain.asc
Start Time: Mon Aug  5 01:05:57 2024
solver = Normal
Maximum thread count: 12
tnom = 27
temp = 27
method = modified trap
Direct Newton iteration for .op point succeeded.
Total elapsed time: 0.216 seconds.

