LTspice 24.0.12 for Windows
Circuit: * C:\Users\smili\Documents\Laboratorio_6_7_ITeDA\Agosto - Version nueva de las simulaciones\Bode+sine_fastshaper.asc
Start Time: Tue Aug 13 11:59:11 2024
solver = Normal
Maximum thread count: 8
tnom = 27
temp = 27
method = modified trap
Direct Newton iteration for .op point succeeded.
Total elapsed time: 0.241 seconds.

