LTspice 24.0.12 for Windows
Circuit: * C:\Users\smili\Documents\Laboratorio_6_7_ITeDA\Agosto - Version nueva de las simulaciones\Modelos\bode_circuito_completo_con_capacitores_en_preamp.asc
Start Time: Thu Aug 15 11:51:33 2024
solver = Normal
Maximum thread count: 8
tnom = 27
temp = 27
method = modified trap
v2: Removing PWL point (5.00167e-11,0)
Direct Newton iteration for .op point succeeded.
Total elapsed time: 0.169 seconds.

