LTspice 24.0.12 for Windows
Circuit: * C:\Users\smili\Documents\Laboratorio_6_7_ITeDA\Agosto - Version nueva de las simulaciones\Modelos\bode_circuito_completo_sin_capacitirores_en_preamp.asc
Start Time: Fri Aug 16 14:50:04 2024
solver = Normal
Maximum thread count: 8
tnom = 27
temp = 27
method = modified trap
v2: Removing PWL point (5.00167e-11,0)
v2: Removing PWL point (6.5005e-07,0)
v2: Removing PWL point (1.30005e-06,0)
v2: Removing PWL point (1.95005e-06,0)
v2: Removing PWL point (2.60005e-06,0)
v2: Removing PWL point (3.25005e-06,0)
v2: Removing PWL point (3.90005e-06,0)
v2: Removing PWL point (4.55005e-06,0)
v2: Removing PWL point (5.20005e-06,0)
v2: Removing PWL point (5.85005e-06,0)
v2: Removing PWL point (6.50005e-06,0)
v2: Removing PWL point (7.15005e-06,0)
v2: Removing PWL point (7.80005e-06,0)
v2: Removing PWL point (8.45005e-06,0)
v2: Removing PWL point (9.10005e-06,0)
v2: Removing PWL point (9.75005e-06,0)
v2: Removing PWL point (1.04001e-05,0)
v2: Removing PWL point (1.10501e-05,0)
v2: Removing PWL point (1.17001e-05,0)
v2: Removing PWL point (1.23501e-05,0)
v2: Removing PWL point (1.30001e-05,0)
v2: Removing PWL point (1.36501e-05,0)
v2: Removing PWL point (1.43001e-05,0)
v2: Removing PWL point (1.49501e-05,0)
v2: Removing PWL point (1.56001e-05,0)
v2: Removing PWL point (1.62501e-05,0)
v2: Removing PWL point (1.69001e-05,0)
v2: Removing PWL point (1.75501e-05,0)
v2: Removing PWL point (1.82001e-05,0)
v2: Removing PWL point (1.88501e-05,0)
v2: Removing PWL point (1.95001e-05,0)
v2: Removing PWL point (2.01501e-05,0)
v2: Removing PWL point (2.08001e-05,0)
v2: Removing PWL point (2.14501e-05,0)
v2: Removing PWL point (2.21001e-05,0)
v2: Removing PWL point (2.27501e-05,0)
v2: Removing PWL point (2.34001e-05,0)
v2: Removing PWL point (2.40501e-05,0)
v2: Removing PWL point (2.47001e-05,0)
v2: Removing PWL point (2.53501e-05,0)
v2: Removing PWL point (2.60001e-05,0)
v2: Removing PWL point (2.66501e-05,0)
v2: Removing PWL point (2.73001e-05,0)
v2: Removing PWL point (2.79501e-05,0)
v2: Removing PWL point (2.86001e-05,0)
v2: Removing PWL point (2.92501e-05,0)
v2: Removing PWL point (2.99001e-05,0)
v2: Removing PWL point (3.05501e-05,0)
v2: Removing PWL point (3.12001e-05,0)
v2: Removing PWL point (3.18501e-05,0)
v2: Removing PWL point (3.25001e-05,0)
v2: Removing PWL point (3.31501e-05,0)
v2: Removing PWL point (3.38001e-05,0)
v2: Removing PWL point (3.44501e-05,0)
v2: Removing PWL point (3.51001e-05,0)
v2: Removing PWL point (3.57501e-05,0)
v2: Removing PWL point (3.64001e-05,0)
v2: Removing PWL point (3.70501e-05,0)
v2: Removing PWL point (3.77001e-05,0)
v2: Removing PWL point (3.83501e-05,0)
v2: Removing PWL point (3.90001e-05,0)
v2: Removing PWL point (3.96501e-05,0)
v2: Removing PWL point (4.03001e-05,0)
v2: Removing PWL point (4.09501e-05,0)
v2: Removing PWL point (4.22501e-05,0)
v2: Removing PWL point (4.29001e-05,0)
v2: Removing PWL point (4.35501e-05,0)
v2: Removing PWL point (4.42001e-05,0)
v2: Removing PWL point (4.48501e-05,0)
v2: Removing PWL point (4.55001e-05,0)
v2: Removing PWL point (4.61501e-05,0)
v2: Removing PWL point (4.68001e-05,0)
v2: Removing PWL point (4.74501e-05,0)
v2: Removing PWL point (4.81001e-05,0)
v2: Removing PWL point (4.87501e-05,0)
v2: Removing PWL point (4.94001e-05,0)
v2: Removing PWL point (5.00501e-05,0)
v2: Removing PWL point (5.07001e-05,0)
v2: Removing PWL point (5.13501e-05,0)
v2: Removing PWL point (5.20001e-05,0)
v2: Removing PWL point (5.26501e-05,0)
v2: Removing PWL point (5.33001e-05,0)
v2: Removing PWL point (5.39501e-05,0)
v2: Removing PWL point (5.46001e-05,0)
v2: Removing PWL point (5.52501e-05,0)
v2: Removing PWL point (5.59001e-05,0)
v2: Removing PWL point (5.65501e-05,0)
v2: Removing PWL point (5.72001e-05,0)
v2: Removing PWL point (5.78501e-05,0)
v2: Removing PWL point (5.85001e-05,0)
v2: Removing PWL point (5.91501e-05,0)
v2: Removing PWL point (5.98001e-05,0)
v2: Removing PWL point (6.04501e-05,0)
v2: Removing PWL point (6.11001e-05,0)
v2: Removing PWL point (6.17501e-05,0)
v2: Removing PWL point (6.24001e-05,0)
v2: Removing PWL point (6.30501e-05,0)
v2: Removing PWL point (6.37001e-05,0)
v2: Removing PWL point (6.43501e-05,0)
v2: Removing PWL point (6.50001e-05,0)
v2: Removing PWL point (6.56501e-05,0)
v2: Removing PWL point (6.63001e-05,0)
v2: Removing PWL point (6.69501e-05,0)
v2: Removing PWL point (6.76001e-05,0)
v2: Removing PWL point (6.82501e-05,0)
v2: Removing PWL point (6.89001e-05,0)
v2: Removing PWL point (6.95501e-05,0)
v2: Removing PWL point (7.02001e-05,0)
v2: Removing PWL point (7.08501e-05,0)
v2: Removing PWL point (7.15001e-05,0)
v2: Removing PWL point (7.21501e-05,0)
v2: Removing PWL point (7.28001e-05,0)
v2: Removing PWL point (7.34501e-05,0)
v2: Removing PWL point (7.41001e-05,0)
v2: Removing PWL point (7.47501e-05,0)
v2: Removing PWL point (7.54001e-05,0)
v2: Removing PWL point (7.60501e-05,0)
v2: Removing PWL point (7.67001e-05,0)
v2: Removing PWL point (7.73501e-05,0)
v2: Removing PWL point (7.80001e-05,0)
v2: Removing PWL point (7.86501e-05,0)
v2: Removing PWL point (7.93001e-05,0)
v2: Removing PWL point (7.99501e-05,0)
v2: Removing PWL point (8.06001e-05,0)
v2: Removing PWL point (8.12501e-05,0)
v2: Removing PWL point (8.19001e-05,0)
v2: Removing PWL point (8.25501e-05,0)
v2: Removing PWL point (8.32001e-05,0)
v2: Removing PWL point (8.38501e-05,0)
v2: Removing PWL point (8.45001e-05,0)
v2: Removing PWL point (8.51501e-05,0)
v2: Removing PWL point (8.58001e-05,0)
v2: Removing PWL point (8.64501e-05,0)
v2: Removing PWL point (8.71001e-05,0)
v2: Removing PWL point (8.77501e-05,0)
v2: Removing PWL point (8.84001e-05,0)
v2: Removing PWL point (8.90501e-05,0)
v2: Removing PWL point (8.97001e-05,0)
v2: Removing PWL point (9.03501e-05,0)
v2: Removing PWL point (9.10001e-05,0)
v2: Removing PWL point (9.16501e-05,0)
v2: Removing PWL point (9.23001e-05,0)
v2: Removing PWL point (9.29501e-05,0)
v2: Removing PWL point (9.36001e-05,0)
v2: Removing PWL point (9.42501e-05,0)
v2: Removing PWL point (9.49001e-05,0)
v2: Removing PWL point (9.55501e-05,0)
v2: Removing PWL point (9.62001e-05,0)
v2: Removing PWL point (9.68501e-05,0)
v2: Removing PWL point (9.75001e-05,0)
v2: Removing PWL point (9.81501e-05,0)
v2: Removing PWL point (9.88001e-05,0)
v2: Removing PWL point (9.94501e-05,0)
v2: Removing PWL point (0.0001001,0)
v2: Removing PWL point (0.00010075,0)
v2: Removing PWL point (0.0001014,0)
v2: Removing PWL point (0.00010205,0)
v2: Removing PWL point (0.0001027,0)
v2: Removing PWL point (0.00010335,0)
v2: Removing PWL point (0.000104,0)
v2: Removing PWL point (0.00010465,0)
v2: Removing PWL point (0.0001053,0)
v2: Removing PWL point (0.00010595,0)
v2: Removing PWL point (0.0001066,0)
v2: Removing PWL point (0.00010725,0)
v2: Removing PWL point (0.0001079,0)
v2: Removing PWL point (0.00010855,0)
v2: Removing PWL point (0.0001092,0)
v2: Removing PWL point (0.00010985,0)
v2: Removing PWL point (0.0001105,0)
v2: Removing PWL point (0.00011115,0)
v2: Removing PWL point (0.0001118,0)
v2: Removing PWL point (0.00011245,0)
v2: Removing PWL point (0.0001131,0)
v2: Removing PWL point (0.00011375,0)
v2: Removing PWL point (0.0001144,0)
v2: Removing PWL point (0.00011505,0)
v2: Removing PWL point (0.0001157,0)
v2: Removing PWL point (0.00011635,0)
v2: Removing PWL point (0.000117,0)
v2: Removing PWL point (0.00011765,0)
v2: Removing PWL point (0.0001183,0)
v2: Removing PWL point (0.00011895,0)
v2: Removing PWL point (0.0001196,0)
v2: Removing PWL point (0.00012025,0)
v2: Removing PWL point (0.0001209,0)
v2: Removing PWL point (0.00012155,0)
v2: Removing PWL point (0.0001222,0)
v2: Removing PWL point (0.00012285,0)
v2: Removing PWL point (0.0001235,0)
v2: Removing PWL point (0.00012415,0)
v2: Removing PWL point (0.0001248,0)
v2: Removing PWL point (0.00012545,0)
v2: Removing PWL point (0.0001261,0)
v2: Removing PWL point (0.00012675,0)
v2: Removing PWL point (0.0001274,0)
v2: Removing PWL point (0.00012805,0)
v2: Removing PWL point (0.0001287,0)
v2: Removing PWL point (0.00012935,0)
v2: Removing PWL point (0.00013,0)
v2: Removing PWL point (0.00013065,0)
v2: Removing PWL point (0.0001313,0)
v2: Removing PWL point (0.00013195,0)
v2: Removing PWL point (0.0001326,0)
v2: Removing PWL point (0.00013325,0)
v2: Removing PWL point (0.0001339,0)
v2: Removing PWL point (0.00013455,0)
v2: Removing PWL point (0.0001352,0)
v2: Removing PWL point (0.00013585,0)
v2: Removing PWL point (0.0001365,0)
v2: Removing PWL point (0.00013715,0)
v2: Removing PWL point (0.0001378,0)
v2: Removing PWL point (0.00013845,0)
v2: Removing PWL point (0.0001391,0)
v2: Removing PWL point (0.00013975,0)
v2: Removing PWL point (0.0001404,0)
v2: Removing PWL point (0.00014105,0)
v2: Removing PWL point (0.0001417,0)
v2: Removing PWL point (0.00014235,0)
v2: Removing PWL point (0.000143,0)
v2: Removing PWL point (0.00014365,0)
v2: Removing PWL point (0.0001443,0)
v2: Removing PWL point (0.00014495,0)
v2: Removing PWL point (0.0001456,0)
v2: Removing PWL point (0.00014625,0)
v2: Removing PWL point (0.0001469,0)
v2: Removing PWL point (0.00014755,0)
v2: Removing PWL point (0.0001482,0)
v2: Removing PWL point (0.00014885,0)
v2: Removing PWL point (0.0001495,0)
v2: Removing PWL point (0.00015015,0)
v2: Removing PWL point (0.0001508,0)
v2: Removing PWL point (0.00015145,0)
v2: Removing PWL point (0.0001521,0)
v2: Removing PWL point (0.00015275,0)
v2: Removing PWL point (0.0001534,0)
v2: Removing PWL point (0.00015405,0)
v2: Removing PWL point (0.0001547,0)
v2: Removing PWL point (0.00015535,0)
v2: Removing PWL point (0.000156,0)
v2: Removing PWL point (0.00015665,0)
v2: Removing PWL point (0.0001573,0)
v2: Removing PWL point (0.00015795,0)
v2: Removing PWL point (0.0001586,0)
v2: Removing PWL point (0.00015925,0)
v2: Removing PWL point (0.0001599,0)
v2: Removing PWL point (0.00016055,0)
v2: Removing PWL point (0.0001612,0)
v2: Removing PWL point (0.00016185,0)
v2: Removing PWL point (0.0001625,0)
v2: Removing PWL point (0.00016315,0)
v2: Removing PWL point (0.0001638,0)
v2: Removing PWL point (0.00016445,0)
v2: Removing PWL point (0.0001651,0)
v2: Removing PWL point (0.00016575,0)
v2: Removing PWL point (0.0001664,0)
v2: Removing PWL point (0.00016705,0)
v2: Removing PWL point (0.0001677,0)
v2: Removing PWL point (0.00016835,0)
v2: Removing PWL point (0.000169,0)
v2: Removing PWL point (0.00016965,0)
v2: Removing PWL point (0.0001703,0)
v2: Removing PWL point (0.00017095,0)
v2: Removing PWL point (0.0001716,0)
v2: Removing PWL point (0.00017225,0)
v2: Removing PWL point (0.0001729,0)
v2: Removing PWL point (0.00017355,0)
v2: Removing PWL point (0.0001742,0)
v2: Removing PWL point (0.00017485,0)
v2: Removing PWL point (0.0001755,0)
v2: Removing PWL point (0.00017615,0)
v2: Removing PWL point (0.0001768,0)
v2: Removing PWL point (0.00017745,0)
v2: Removing PWL point (0.0001781,0)
v2: Removing PWL point (0.00017875,0)
v2: Removing PWL point (0.0001794,0)
v2: Removing PWL point (0.00018005,0)
v2: Removing PWL point (0.0001807,0)
v2: Removing PWL point (0.00018135,0)
v2: Removing PWL point (0.000182,0)
v2: Removing PWL point (0.00018265,0)
v2: Removing PWL point (0.0001833,0)
v2: Removing PWL point (0.00018395,0)
v2: Removing PWL point (0.0001846,0)
v2: Removing PWL point (0.00018525,0)
v2: Removing PWL point (0.0001859,0)
v2: Removing PWL point (0.00018655,0)
v2: Removing PWL point (0.0001872,0)
v2: Removing PWL point (0.00018785,0)
v2: Removing PWL point (0.0001885,0)
v2: Removing PWL point (0.00018915,0)
v2: Removing PWL point (0.0001898,0)
v2: Removing PWL point (0.00019045,0)
v2: Removing PWL point (0.0001911,0)
v2: Removing PWL point (0.00019175,0)
v2: Removing PWL point (0.0001924,0)
v2: Removing PWL point (0.00019305,0)
v2: Removing PWL point (0.0001937,0)
v2: Removing PWL point (0.00019435,0)
v2: Removing PWL point (0.000195,0)
v2: Removing PWL point (0.00019565,0)
v2: Removing PWL point (0.0001963,0)
v2: Removing PWL point (0.00019695,0)
v2: Removing PWL point (0.0001976,0)
v2: Removing PWL point (0.00019825,0)
v2: Removing PWL point (0.0001989,0)
v2: Removing PWL point (0.00019955,0)
v2: Removing PWL point (0.0002002,0)
v2: Removing PWL point (0.00020085,0)
v2: Removing PWL point (0.0002015,0)
v2: Removing PWL point (0.00020215,0)
v2: Removing PWL point (0.0002028,0)
v2: Removing PWL point (0.00020345,0)
v2: Removing PWL point (0.0002041,0)
v2: Removing PWL point (0.00020475,0)
v2: Removing PWL point (0.0002054,0)
v2: Removing PWL point (0.00020605,0)
v2: Removing PWL point (0.0002067,0)
v2: Removing PWL point (0.00020735,0)
v2: Removing PWL point (0.000208,0)
v2: Removing PWL point (0.00020865,0)
v2: Removing PWL point (0.0002093,0)
v2: Removing PWL point (0.00020995,0)
v2: Removing PWL point (0.0002106,0)
v2: Removing PWL point (0.00021125,0)
v2: Removing PWL point (0.0002119,0)
v2: Removing PWL point (0.00021255,0)
v2: Removing PWL point (0.0002132,0)
v2: Removing PWL point (0.00021385,0)
v2: Removing PWL point (0.0002145,0)
v2: Removing PWL point (0.00021515,0)
v2: Removing PWL point (0.0002158,0)
v2: Removing PWL point (0.00021645,0)
v2: Removing PWL point (0.0002171,0)
v2: Removing PWL point (0.00021775,0)
v2: Removing PWL point (0.0002184,0)
v2: Removing PWL point (0.00021905,0)
v2: Removing PWL point (0.0002197,0)
v2: Removing PWL point (0.00022035,0)
v2: Removing PWL point (0.000221,0)
v2: Removing PWL point (0.00022165,0)
v2: Removing PWL point (0.0002223,0)
v2: Removing PWL point (0.00022295,0)
v2: Removing PWL point (0.0002236,0)
v2: Removing PWL point (0.00022425,0)
v2: Removing PWL point (0.0002249,0)
v2: Removing PWL point (0.00022555,0)
v2: Removing PWL point (0.0002262,0)
v2: Removing PWL point (0.00022685,0)
v2: Removing PWL point (0.0002275,0)
v2: Removing PWL point (0.00022815,0)
v2: Removing PWL point (0.0002288,0)
v2: Removing PWL point (0.00022945,0)
v2: Removing PWL point (0.0002301,0)
v2: Removing PWL point (0.00023075,0)
v2: Removing PWL point (0.0002314,0)
v2: Removing PWL point (0.00023205,0)
v2: Removing PWL point (0.0002327,0)
v2: Removing PWL point (0.00023335,0)
v2: Removing PWL point (0.000234,0)
v2: Removing PWL point (0.00023465,0)
v2: Removing PWL point (0.0002353,0)
v2: Removing PWL point (0.00023595,0)
v2: Removing PWL point (0.0002366,0)
v2: Removing PWL point (0.00023725,0)
v2: Removing PWL point (0.0002379,0)
v2: Removing PWL point (0.00023855,0)
v2: Removing PWL point (0.0002392,0)
v2: Removing PWL point (0.00023985,0)
v2: Removing PWL point (0.0002405,0)
v2: Removing PWL point (0.00024115,0)
v2: Removing PWL point (0.0002418,0)
v2: Removing PWL point (0.00024245,0)
v2: Removing PWL point (0.0002431,0)
v2: Removing PWL point (0.00024375,0)
v2: Removing PWL point (0.0002444,0)
v2: Removing PWL point (0.00024505,0)
v2: Removing PWL point (0.0002457,0)
v2: Removing PWL point (0.00024635,0)
v2: Removing PWL point (0.000247,0)
v2: Removing PWL point (0.00024765,0)
v2: Removing PWL point (0.0002483,0)
v2: Removing PWL point (0.00024895,0)
v2: Removing PWL point (0.0002496,0)
v2: Removing PWL point (0.00025025,0)
v2: Removing PWL point (0.0002509,0)
v2: Removing PWL point (0.00025155,0)
v2: Removing PWL point (0.0002522,0)
v2: Removing PWL point (0.00025285,0)
v2: Removing PWL point (0.0002535,0)
v2: Removing PWL point (0.00025415,0)
v2: Removing PWL point (0.0002548,0)
v2: Removing PWL point (0.00025545,0)
v2: Removing PWL point (0.0002561,0)
v2: Removing PWL point (0.00025675,0)
v2: Removing PWL point (0.0002574,0)
v2: Removing PWL point (0.00025805,0)
v2: Removing PWL point (0.0002587,0)
v2: Removing PWL point (0.00025935,0)
v2: Removing PWL point (0.00026,0)
v2: Removing PWL point (0.00026065,0)
v2: Removing PWL point (0.0002613,0)
v2: Removing PWL point (0.00026195,0)
v2: Removing PWL point (0.0002626,0)
v2: Removing PWL point (0.00026325,0)
v2: Removing PWL point (0.0002639,0)
v2: Removing PWL point (0.00026455,0)
v2: Removing PWL point (0.0002652,0)
v2: Removing PWL point (0.00026585,0)
v2: Removing PWL point (0.0002665,0)
v2: Removing PWL point (0.00026715,0)
v2: Removing PWL point (0.0002678,0)
v2: Removing PWL point (0.00026845,0)
v2: Removing PWL point (0.0002691,0)
v2: Removing PWL point (0.00026975,0)
v2: Removing PWL point (0.0002704,0)
v2: Removing PWL point (0.00027105,0)
v2: Removing PWL point (0.0002717,0)
v2: Removing PWL point (0.00027235,0)
v2: Removing PWL point (0.000273,0)
v2: Removing PWL point (0.00027365,0)
v2: Removing PWL point (0.0002743,0)
v2: Removing PWL point (0.00027495,0)
v2: Removing PWL point (0.0002756,0)
v2: Removing PWL point (0.00027625,0)
v2: Removing PWL point (0.0002769,0)
v2: Removing PWL point (0.00027755,0)
v2: Removing PWL point (0.0002782,0)
v2: Removing PWL point (0.00027885,0)
v2: Removing PWL point (0.0002795,0)
v2: Removing PWL point (0.00028015,0)
v2: Removing PWL point (0.0002808,0)
v2: Removing PWL point (0.00028145,0)
v2: Removing PWL point (0.0002821,0)
v2: Removing PWL point (0.00028275,0)
v2: Removing PWL point (0.0002834,0)
v2: Removing PWL point (0.00028405,0)
v2: Removing PWL point (0.0002847,0)
v2: Removing PWL point (0.00028535,0)
v2: Removing PWL point (0.000286,0)
v2: Removing PWL point (0.00028665,0)
v2: Removing PWL point (0.0002873,0)
v2: Removing PWL point (0.00028795,0)
v2: Removing PWL point (0.0002886,0)
v2: Removing PWL point (0.00028925,0)
v2: Removing PWL point (0.0002899,0)
v2: Removing PWL point (0.00029055,0)
v2: Removing PWL point (0.0002912,0)
v2: Removing PWL point (0.00029185,0)
v2: Removing PWL point (0.0002925,0)
v2: Removing PWL point (0.00029315,0)
v2: Removing PWL point (0.0002938,0)
v2: Removing PWL point (0.00029445,0)
v2: Removing PWL point (0.0002951,0)
v2: Removing PWL point (0.00029575,0)
v2: Removing PWL point (0.0002964,0)
v2: Removing PWL point (0.00029705,0)
v2: Removing PWL point (0.0002977,0)
v2: Removing PWL point (0.00029835,0)
v2: Removing PWL point (0.000299,0)
v2: Removing PWL point (0.00029965,0)
v2: Removing PWL point (0.0003003,0)
v2: Removing PWL point (0.00030095,0)
v2: Removing PWL point (0.0003016,0)
v2: Removing PWL point (0.00030225,0)
v2: Removing PWL point (0.0003029,0)
v2: Removing PWL point (0.00030355,0)
v2: Removing PWL point (0.0003042,0)
v2: Removing PWL point (0.00030485,0)
v2: Removing PWL point (0.0003055,0)
v2: Removing PWL point (0.00030615,0)
v2: Removing PWL point (0.0003068,0)
v2: Removing PWL point (0.00030745,0)
v2: Removing PWL point (0.0003081,0)
v2: Removing PWL point (0.00030875,0)
v2: Removing PWL point (0.0003094,0)
v2: Removing PWL point (0.00031005,0)
v2: Removing PWL point (0.0003107,0)
v2: Removing PWL point (0.00031135,0)
v2: Removing PWL point (0.000312,0)
v2: Removing PWL point (0.00031265,0)
v2: Removing PWL point (0.0003133,0)
v2: Removing PWL point (0.00031395,0)
v2: Removing PWL point (0.0003146,0)
v2: Removing PWL point (0.00031525,0)
v2: Removing PWL point (0.0003159,0)
v2: Removing PWL point (0.00031655,0)
v2: Removing PWL point (0.0003172,0)
v2: Removing PWL point (0.00031785,0)
v2: Removing PWL point (0.0003185,0)
v2: Removing PWL point (0.00031915,0)
v2: Removing PWL point (0.0003198,0)
v2: Removing PWL point (0.00032045,0)
v2: Removing PWL point (0.0003211,0)
v2: Removing PWL point (0.00032175,0)
v2: Removing PWL point (0.0003224,0)
v2: Removing PWL point (0.00032305,0)
v2: Removing PWL point (0.0003237,0)
v2: Removing PWL point (0.00032435,0)
v2: Removing PWL point (0.000325,0)
v2: Removing PWL point (0.00032565,0)
v2: Removing PWL point (0.0003263,0)
v2: Removing PWL point (0.00032695,0)
v2: Removing PWL point (0.0003276,0)
v2: Removing PWL point (0.00032825,0)
v2: Removing PWL point (0.0003289,0)
v2: Removing PWL point (0.00032955,0)
v2: Removing PWL point (0.0003302,0)
v2: Removing PWL point (0.00033085,0)
v2: Removing PWL point (0.0003315,0)
v2: Removing PWL point (0.00033215,0)
v2: Removing PWL point (0.0003328,0)
v2: Removing PWL point (0.00033345,0)
v2: Removing PWL point (0.0003341,0)
v2: Removing PWL point (0.00033475,0)
v2: Removing PWL point (0.0003354,0)
v2: Removing PWL point (0.00033605,0)
v2: Removing PWL point (0.0003367,0)
v2: Removing PWL point (0.00033735,0)
v2: Removing PWL point (0.000338,0)
v2: Removing PWL point (0.00033865,0)
v2: Removing PWL point (0.0003393,0)
v2: Removing PWL point (0.00033995,0)
v2: Removing PWL point (0.0003406,0)
v2: Removing PWL point (0.00034125,0)
v2: Removing PWL point (0.0003419,0)
v2: Removing PWL point (0.00034255,0)
v2: Removing PWL point (0.0003432,0)
v2: Removing PWL point (0.00034385,0)
v2: Removing PWL point (0.0003445,0)
v2: Removing PWL point (0.00034515,0)
v2: Removing PWL point (0.0003458,0)
v2: Removing PWL point (0.00034645,0)
v2: Removing PWL point (0.0003471,0)
v2: Removing PWL point (0.00034775,0)
v2: Removing PWL point (0.0003484,0)
v2: Removing PWL point (0.00034905,0)
v2: Removing PWL point (0.0003497,0)
v2: Removing PWL point (0.00035035,0)
v2: Removing PWL point (0.000351,0)
v2: Removing PWL point (0.00035165,0)
v2: Removing PWL point (0.0003523,0)
v2: Removing PWL point (0.00035295,0)
v2: Removing PWL point (0.0003536,0)
v2: Removing PWL point (0.00035425,0)
v2: Removing PWL point (0.0003549,0)
v2: Removing PWL point (0.00035555,0)
v2: Removing PWL point (0.0003562,0)
v2: Removing PWL point (0.00035685,0)
v2: Removing PWL point (0.0003575,0)
v2: Removing PWL point (0.00035815,0)
v2: Removing PWL point (0.0003588,0)
v2: Removing PWL point (0.00035945,0)
v2: Removing PWL point (0.0003601,0)
v2: Removing PWL point (0.00036075,0)
v2: Removing PWL point (0.0003614,0)
v2: Removing PWL point (0.00036205,0)
v2: Removing PWL point (0.0003627,0)
v2: Removing PWL point (0.00036335,0)
v2: Removing PWL point (0.000364,0)
v2: Removing PWL point (0.00036465,0)
v2: Removing PWL point (0.0003653,0)
v2: Removing PWL point (0.00036595,0)
v2: Removing PWL point (0.0003666,0)
v2: Removing PWL point (0.00036725,0)
v2: Removing PWL point (0.0003679,0)
v2: Removing PWL point (0.00036855,0)
v2: Removing PWL point (0.0003692,0)
v2: Removing PWL point (0.00036985,0)
v2: Removing PWL point (0.0003705,0)
v2: Removing PWL point (0.00037115,0)
v2: Removing PWL point (0.0003718,0)
v2: Removing PWL point (0.00037245,0)
v2: Removing PWL point (0.0003731,0)
v2: Removing PWL point (0.00037375,0)
v2: Removing PWL point (0.0003744,0)
v2: Removing PWL point (0.00037505,0)
v2: Removing PWL point (0.0003757,0)
v2: Removing PWL point (0.00037635,0)
v2: Removing PWL point (0.000377,0)
v2: Removing PWL point (0.00037765,0)
v2: Removing PWL point (0.0003783,0)
v2: Removing PWL point (0.00037895,0)
v2: Removing PWL point (0.0003796,0)
v2: Removing PWL point (0.00038025,0)
v2: Removing PWL point (0.0003809,0)
v2: Removing PWL point (0.00038155,0)
v2: Removing PWL point (0.0003822,0)
v2: Removing PWL point (0.00038285,0)
v2: Removing PWL point (0.0003835,0)
v2: Removing PWL point (0.00038415,0)
v2: Removing PWL point (0.0003848,0)
v2: Removing PWL point (0.00038545,0)
v2: Removing PWL point (0.0003861,0)
v2: Removing PWL point (0.00038675,0)
v2: Removing PWL point (0.0003874,0)
v2: Removing PWL point (0.00038805,0)
v2: Removing PWL point (0.0003887,0)
v2: Removing PWL point (0.00038935,0)
v2: Removing PWL point (0.00039,0)
v2: Removing PWL point (0.00039065,0)
v2: Removing PWL point (0.0003913,0)
v2: Removing PWL point (0.00039195,0)
v2: Removing PWL point (0.0003926,0)
v2: Removing PWL point (0.00039325,0)
v2: Removing PWL point (0.0003939,0)
v2: Removing PWL point (0.00039455,0)
v2: Removing PWL point (0.0003952,0)
v2: Removing PWL point (0.00039585,0)
v2: Removing PWL point (0.0003965,0)
v2: Removing PWL point (0.00039715,0)
v2: Removing PWL point (0.0003978,0)
v2: Removing PWL point (0.00039845,0)
v2: Removing PWL point (0.0003991,0)
v2: Removing PWL point (0.00039975,0)
v2: Removing PWL point (0.0004004,0)
v2: Removing PWL point (0.00040105,0)
v2: Removing PWL point (0.0004017,0)
v2: Removing PWL point (0.00040235,0)
v2: Removing PWL point (0.000403,0)
v2: Removing PWL point (0.00040365,0)
v2: Removing PWL point (0.0004043,0)
v2: Removing PWL point (0.00040495,0)
v2: Removing PWL point (0.0004056,0)
v2: Removing PWL point (0.00040625,0)
v2: Removing PWL point (0.0004069,0)
v2: Removing PWL point (0.00040755,0)
v2: Removing PWL point (0.0004082,0)
v2: Removing PWL point (0.00040885,0)
v2: Removing PWL point (0.0004095,0)
v2: Removing PWL point (0.00041015,0)
v2: Removing PWL point (0.0004108,0)
v2: Removing PWL point (0.00041145,0)
v2: Removing PWL point (0.0004121,0)
v2: Removing PWL point (0.00041275,0)
v2: Removing PWL point (0.0004134,0)
v2: Removing PWL point (0.00041405,0)
v2: Removing PWL point (0.0004147,0)
v2: Removing PWL point (0.00041535,0)
v2: Removing PWL point (0.000416,0)
v2: Removing PWL point (0.00041665,0)
v2: Removing PWL point (0.0004173,0)
v2: Removing PWL point (0.00041795,0)
v2: Removing PWL point (0.0004186,0)
v2: Removing PWL point (0.00041925,0)
v2: Removing PWL point (0.0004199,0)
v2: Removing PWL point (0.00042055,0)
v2: Removing PWL point (0.0004212,0)
v2: Removing PWL point (0.00042185,0)
v2: Removing PWL point (0.0004225,0)
v2: Removing PWL point (0.00042315,0)
v2: Removing PWL point (0.0004238,0)
v2: Removing PWL point (0.00042445,0)
v2: Removing PWL point (0.0004251,0)
v2: Removing PWL point (0.00042575,0)
v2: Removing PWL point (0.0004264,0)
v2: Removing PWL point (0.00042705,0)
v2: Removing PWL point (0.0004277,0)
v2: Removing PWL point (0.00042835,0)
v2: Removing PWL point (0.000429,0)
v2: Removing PWL point (0.00042965,0)
v2: Removing PWL point (0.0004303,0)
v2: Removing PWL point (0.00043095,0)
v2: Removing PWL point (0.0004316,0)
v2: Removing PWL point (0.00043225,0)
v2: Removing PWL point (0.0004329,0)
v2: Removing PWL point (0.00043355,0)
v2: Removing PWL point (0.0004342,0)
v2: Removing PWL point (0.00043485,0)
v2: Removing PWL point (0.0004355,0)
v2: Removing PWL point (0.00043615,0)
v2: Removing PWL point (0.0004368,0)
v2: Removing PWL point (0.00043745,0)
v2: Removing PWL point (0.0004381,0)
v2: Removing PWL point (0.00043875,0)
v2: Removing PWL point (0.0004394,0)
v2: Removing PWL point (0.00044005,0)
v2: Removing PWL point (0.0004407,0)
v2: Removing PWL point (0.00044135,0)
v2: Removing PWL point (0.000442,0)
v2: Removing PWL point (0.00044265,0)
v2: Removing PWL point (0.0004433,0)
v2: Removing PWL point (0.00044395,0)
v2: Removing PWL point (0.0004446,0)
v2: Removing PWL point (0.00044525,0)
v2: Removing PWL point (0.0004459,0)
v2: Removing PWL point (0.00044655,0)
v2: Removing PWL point (0.0004472,0)
v2: Removing PWL point (0.00044785,0)
v2: Removing PWL point (0.0004485,0)
v2: Removing PWL point (0.00044915,0)
v2: Removing PWL point (0.0004498,0)
v2: Removing PWL point (0.00045045,0)
v2: Removing PWL point (0.0004511,0)
v2: Removing PWL point (0.00045175,0)
v2: Removing PWL point (0.0004524,0)
v2: Removing PWL point (0.00045305,0)
v2: Removing PWL point (0.0004537,0)
v2: Removing PWL point (0.00045435,0)
v2: Removing PWL point (0.000455,0)
v2: Removing PWL point (0.00045565,0)
v2: Removing PWL point (0.0004563,0)
v2: Removing PWL point (0.00045695,0)
v2: Removing PWL point (0.0004576,0)
v2: Removing PWL point (0.00045825,0)
v2: Removing PWL point (0.0004589,0)
v2: Removing PWL point (0.00045955,0)
v2: Removing PWL point (0.0004602,0)
v2: Removing PWL point (0.00046085,0)
v2: Removing PWL point (0.0004615,0)
v2: Removing PWL point (0.00046215,0)
v2: Removing PWL point (0.0004628,0)
v2: Removing PWL point (0.00046345,0)
v2: Removing PWL point (0.0004641,0)
v2: Removing PWL point (0.00046475,0)
v2: Removing PWL point (0.0004654,0)
v2: Removing PWL point (0.00046605,0)
v2: Removing PWL point (0.0004667,0)
v2: Removing PWL point (0.00046735,0)
v2: Removing PWL point (0.000468,0)
v2: Removing PWL point (0.00046865,0)
v2: Removing PWL point (0.0004693,0)
v2: Removing PWL point (0.00046995,0)
v2: Removing PWL point (0.0004706,0)
v2: Removing PWL point (0.00047125,0)
v2: Removing PWL point (0.0004719,0)
v2: Removing PWL point (0.00047255,0)
v2: Removing PWL point (0.0004732,0)
v2: Removing PWL point (0.00047385,0)
v2: Removing PWL point (0.0004745,0)
v2: Removing PWL point (0.00047515,0)
v2: Removing PWL point (0.0004758,0)
v2: Removing PWL point (0.00047645,0)
v2: Removing PWL point (0.0004771,0)
v2: Removing PWL point (0.00047775,0)
v2: Removing PWL point (0.0004784,0)
v2: Removing PWL point (0.00047905,0)
v2: Removing PWL point (0.0004797,0)
v2: Removing PWL point (0.00048035,0)
v2: Removing PWL point (0.000481,0)
v2: Removing PWL point (0.00048165,0)
v2: Removing PWL point (0.0004823,0)
v2: Removing PWL point (0.00048295,0)
v2: Removing PWL point (0.0004836,0)
v2: Removing PWL point (0.00048425,0)
v2: Removing PWL point (0.0004849,0)
v2: Removing PWL point (0.00048555,0)
v2: Removing PWL point (0.0004862,0)
v2: Removing PWL point (0.00048685,0)
v2: Removing PWL point (0.0004875,0)
v2: Removing PWL point (0.00048815,0)
v2: Removing PWL point (0.0004888,0)
v2: Removing PWL point (0.00048945,0)
v2: Removing PWL point (0.0004901,0)
v2: Removing PWL point (0.00049075,0)
v2: Removing PWL point (0.0004914,0)
v2: Removing PWL point (0.00049205,0)
v2: Removing PWL point (0.0004927,0)
v2: Removing PWL point (0.00049335,0)
v2: Removing PWL point (0.000494,0)
v2: Removing PWL point (0.00049465,0)
v2: Removing PWL point (0.0004953,0)
v2: Removing PWL point (0.00049595,0)
v2: Removing PWL point (0.0004966,0)
v2: Removing PWL point (0.00049725,0)
v2: Removing PWL point (0.0004979,0)
v2: Removing PWL point (0.00049855,0)
v2: Removing PWL point (0.0004992,0)
v2: Removing PWL point (0.00049985,0)
v2: Removing PWL point (0.0005005,0)
v2: Removing PWL point (0.00050115,0)
v2: Removing PWL point (0.0005018,0)
v2: Removing PWL point (0.00050245,0)
v2: Removing PWL point (0.0005031,0)
v2: Removing PWL point (0.00050375,0)
v2: Removing PWL point (0.0005044,0)
v2: Removing PWL point (0.00050505,0)
v2: Removing PWL point (0.0005057,0)
v2: Removing PWL point (0.00050635,0)
v2: Removing PWL point (0.000507,0)
v2: Removing PWL point (0.00050765,0)
v2: Removing PWL point (0.0005083,0)
v2: Removing PWL point (0.00050895,0)
v2: Removing PWL point (0.0005096,0)
v2: Removing PWL point (0.00051025,0)
v2: Removing PWL point (0.0005109,0)
v2: Removing PWL point (0.00051155,0)
v2: Removing PWL point (0.0005122,0)
v2: Removing PWL point (0.00051285,0)
v2: Removing PWL point (0.0005135,0)
v2: Removing PWL point (0.00051415,0)
v2: Removing PWL point (0.0005148,0)
v2: Removing PWL point (0.00051545,0)
v2: Removing PWL point (0.0005161,0)
v2: Removing PWL point (0.00051675,0)
v2: Removing PWL point (0.0005174,0)
v2: Removing PWL point (0.00051805,0)
v2: Removing PWL point (0.0005187,0)
v2: Removing PWL point (0.00051935,0)
v2: Removing PWL point (0.00052,0)
v2: Removing PWL point (0.00052065,0)
v2: Removing PWL point (0.0005213,0)
v2: Removing PWL point (0.00052195,0)
v2: Removing PWL point (0.0005226,0)
v2: Removing PWL point (0.00052325,0)
v2: Removing PWL point (0.0005239,0)
v2: Removing PWL point (0.00052455,0)
v2: Removing PWL point (0.0005252,0)
v2: Removing PWL point (0.00052585,0)
v2: Removing PWL point (0.0005265,0)
v2: Removing PWL point (0.00052715,0)
v2: Removing PWL point (0.00052845,0)
v2: Removing PWL point (0.0005291,0)
v2: Removing PWL point (0.00052975,0)
v2: Removing PWL point (0.0005304,0)
v2: Removing PWL point (0.00053105,0)
v2: Removing PWL point (0.0005317,0)
v2: Removing PWL point (0.00053235,0)
v2: Removing PWL point (0.000533,0)
v2: Removing PWL point (0.00053365,0)
v2: Removing PWL point (0.0005343,0)
v2: Removing PWL point (0.00053495,0)
v2: Removing PWL point (0.0005356,0)
v2: Removing PWL point (0.00053625,0)
v2: Removing PWL point (0.0005369,0)
v2: Removing PWL point (0.00053755,0)
v2: Removing PWL point (0.0005382,0)
v2: Removing PWL point (0.00053885,0)
v2: Removing PWL point (0.0005395,0)
v2: Removing PWL point (0.00054015,0)
v2: Removing PWL point (0.0005408,0)
v2: Removing PWL point (0.00054145,0)
v2: Removing PWL point (0.0005421,0)
v2: Removing PWL point (0.00054275,0)
v2: Removing PWL point (0.0005434,0)
v2: Removing PWL point (0.00054405,0)
v2: Removing PWL point (0.0005447,0)
v2: Removing PWL point (0.00054535,0)
v2: Removing PWL point (0.000546,0)
v2: Removing PWL point (0.00054665,0)
v2: Removing PWL point (0.0005473,0)
v2: Removing PWL point (0.00054795,0)
v2: Removing PWL point (0.0005486,0)
v2: Removing PWL point (0.00054925,0)
v2: Removing PWL point (0.0005499,0)
v2: Removing PWL point (0.00055055,0)
v2: Removing PWL point (0.0005512,0)
v2: Removing PWL point (0.00055185,0)
v2: Removing PWL point (0.0005525,0)
v2: Removing PWL point (0.00055315,0)
v2: Removing PWL point (0.0005538,0)
v2: Removing PWL point (0.00055445,0)
v2: Removing PWL point (0.0005551,0)
v2: Removing PWL point (0.00055575,0)
v2: Removing PWL point (0.0005564,0)
v2: Removing PWL point (0.00055705,0)
v2: Removing PWL point (0.0005577,0)
v2: Removing PWL point (0.00055835,0)
v2: Removing PWL point (0.000559,0)
v2: Removing PWL point (0.00055965,0)
v2: Removing PWL point (0.0005603,0)
v2: Removing PWL point (0.00056095,0)
v2: Removing PWL point (0.0005616,0)
v2: Removing PWL point (0.00056225,0)
v2: Removing PWL point (0.0005629,0)
v2: Removing PWL point (0.00056355,0)
v2: Removing PWL point (0.0005642,0)
v2: Removing PWL point (0.00056485,0)
v2: Removing PWL point (0.0005655,0)
v2: Removing PWL point (0.00056615,0)
v2: Removing PWL point (0.0005668,0)
v2: Removing PWL point (0.00056745,0)
v2: Removing PWL point (0.0005681,0)
v2: Removing PWL point (0.00056875,0)
v2: Removing PWL point (0.0005694,0)
v2: Removing PWL point (0.00057005,0)
v2: Removing PWL point (0.0005707,0)
v2: Removing PWL point (0.00057135,0)
v2: Removing PWL point (0.000572,0)
v2: Removing PWL point (0.00057265,0)
v2: Removing PWL point (0.0005733,0)
v2: Removing PWL point (0.00057395,0)
v2: Removing PWL point (0.0005746,0)
v2: Removing PWL point (0.00057525,0)
v2: Removing PWL point (0.0005759,0)
v2: Removing PWL point (0.00057655,0)
v2: Removing PWL point (0.0005772,0)
v2: Removing PWL point (0.00057785,0)
v2: Removing PWL point (0.0005785,0)
v2: Removing PWL point (0.00057915,0)
v2: Removing PWL point (0.0005798,0)
v2: Removing PWL point (0.00058045,0)
v2: Removing PWL point (0.0005811,0)
v2: Removing PWL point (0.00058175,0)
v2: Removing PWL point (0.0005824,0)
v2: Removing PWL point (0.00058305,0)
v2: Removing PWL point (0.0005837,0)
v2: Removing PWL point (0.00058435,0)
v2: Removing PWL point (0.000585,0)
v2: Removing PWL point (0.00058565,0)
v2: Removing PWL point (0.0005863,0)
v2: Removing PWL point (0.00058695,0)
v2: Removing PWL point (0.0005876,0)
v2: Removing PWL point (0.00058825,0)
v2: Removing PWL point (0.0005889,0)
v2: Removing PWL point (0.00058955,0)
v2: Removing PWL point (0.0005902,0)
v2: Removing PWL point (0.00059085,0)
v2: Removing PWL point (0.0005915,0)
v2: Removing PWL point (0.00059215,0)
v2: Removing PWL point (0.0005928,0)
v2: Removing PWL point (0.00059345,0)
v2: Removing PWL point (0.00059475,0)
v2: Removing PWL point (0.0005954,0)
v2: Removing PWL point (0.00059605,0)
v2: Removing PWL point (0.0005967,0)
v2: Removing PWL point (0.00059735,0)
v2: Removing PWL point (0.000598,0)
v2: Removing PWL point (0.00059865,0)
v2: Removing PWL point (0.0005993,0)
v2: Removing PWL point (0.00059995,0)
v2: Removing PWL point (0.0006006,0)
v2: Removing PWL point (0.00060125,0)
v2: Removing PWL point (0.0006019,0)
v2: Removing PWL point (0.00060255,0)
v2: Removing PWL point (0.0006032,0)
v2: Removing PWL point (0.00060385,0)
v2: Removing PWL point (0.0006045,0)
v2: Removing PWL point (0.00060515,0)
v2: Removing PWL point (0.0006058,0)
v2: Removing PWL point (0.00060645,0)
v2: Removing PWL point (0.0006071,0)
v2: Removing PWL point (0.00060775,0)
v2: Removing PWL point (0.0006084,0)
v2: Removing PWL point (0.00060905,0)
v2: Removing PWL point (0.0006097,0)
v2: Removing PWL point (0.00061035,0)
v2: Removing PWL point (0.000611,0)
v2: Removing PWL point (0.00061165,0)
v2: Removing PWL point (0.0006123,0)
v2: Removing PWL point (0.00061295,0)
v2: Removing PWL point (0.0006136,0)
v2: Removing PWL point (0.00061425,0)
v2: Removing PWL point (0.0006149,0)
v2: Removing PWL point (0.00061555,0)
v2: Removing PWL point (0.0006162,0)
v2: Removing PWL point (0.00061685,0)
v2: Removing PWL point (0.0006175,0)
v2: Removing PWL point (0.00061815,0)
v2: Removing PWL point (0.0006188,0)
v2: Removing PWL point (0.00061945,0)
v2: Removing PWL point (0.0006201,0)
v2: Removing PWL point (0.00062075,0)
v2: Removing PWL point (0.0006214,0)
v2: Removing PWL point (0.00062205,0)
v2: Removing PWL point (0.0006227,0)
v2: Removing PWL point (0.00062335,0)
v2: Removing PWL point (0.000624,0)
v2: Removing PWL point (0.00062465,0)
v2: Removing PWL point (0.0006253,0)
v2: Removing PWL point (0.00062595,0)
v2: Removing PWL point (0.0006266,0)
v2: Removing PWL point (0.00062725,0)
v2: Removing PWL point (0.0006279,0)
v2: Removing PWL point (0.00062855,0)
v2: Removing PWL point (0.0006292,0)
v2: Removing PWL point (0.00062985,0)
v2: Removing PWL point (0.0006305,0)
v2: Removing PWL point (0.00063115,0)
v2: Removing PWL point (0.0006318,0)
v2: Removing PWL point (0.00063245,0)
v2: Removing PWL point (0.0006331,0)
v2: Removing PWL point (0.00063375,0)
v2: Removing PWL point (0.0006344,0)
v2: Removing PWL point (0.00063505,0)
v2: Removing PWL point (0.0006357,0)
v2: Removing PWL point (0.00063635,0)
v2: Removing PWL point (0.000637,0)
v2: Removing PWL point (0.0006383,0)
v2: Removing PWL point (0.0006396,0)
v2: Removing PWL point (0.00064025,0)
v2: Removing PWL point (0.0006409,0)
v2: Removing PWL point (0.00064155,0)
v2: Removing PWL point (0.0006422,0)
v2: Removing PWL point (0.00064285,0)
v2: Removing PWL point (0.0006435,0)
v2: Removing PWL point (0.00064415,0)
v2: Removing PWL point (0.0006448,0)
v2: Removing PWL point (0.00064545,0)
v2: Removing PWL point (0.0006461,0)
v2: Removing PWL point (0.00064675,0)
v2: Removing PWL point (0.0006474,0)
v2: Removing PWL point (0.00064805,0)
v2: Removing PWL point (0.0006487,0)
v2: Removing PWL point (0.00064935,0)
Direct Newton iteration for .op point succeeded.
Total elapsed time: 441.813 seconds.

