LTspice 24.0.12 for Windows
Circuit: * C:\Users\smili\Documents\Laboratorio_6_7_ITeDA\ITEDA\Drive\threshold_calculator.asc
Start Time: Tue Aug 13 12:17:16 2024
solver = Normal
Maximum thread count: 8



WARNING: Less than two connections to node input_1pe.  This node is used by v1.
WARNING: Less than two connections to node input_2pe.  This node is used by v6.
Direct Newton iteration for .op point succeeded.
.step vt=0.104



.step vt=0.1041



.step vt=0.1042



.step vt=0.1043



.step vt=0.1044



.step vt=0.1045



.step vt=0.1046



.step vt=0.1047



.step vt=0.1048



.step vt=0.1049



.step vt=0.105



.step vt=0.1051



.step vt=0.1052



.step vt=0.1053



.step vt=0.1054



.step vt=0.1055



.step vt=0.1056



.step vt=0.1057



.step vt=0.1058



.step vt=0.1059



.step vt=0.106



.step vt=0.1061



.step vt=0.1062



.step vt=0.1063



.step vt=0.1064



.step vt=0.1065



.step vt=0.1066



.step vt=0.1067



.step vt=0.1068



.step vt=0.1069



.step vt=0.107



.step vt=0.1071



.step vt=0.1072



.step vt=0.1073



.step vt=0.1074



.step vt=0.1075



.step vt=0.1076



.step vt=0.1077



.step vt=0.1078



.step vt=0.1079



.step vt=0.108



.step vt=0.1081



.step vt=0.1082



.step vt=0.1083



.step vt=0.1084



.step vt=0.1085



.step vt=0.1086



.step vt=0.1087



.step vt=0.1088



.step vt=0.1089



.step vt=0.109



.step vt=0.1091



.step vt=0.1092



.step vt=0.1093



.step vt=0.1094



.step vt=0.1095



.step vt=0.1096



.step vt=0.1097



.step vt=0.1098



.step vt=0.1099
tnom = 27
temp = 27
method = modified trap
.step vt=0.11


Measurement: ones
  step	floor(widthpulse/(3.125e-9))
     1	1
     2	1
     3	1
     4	1
     5	1
     6	1
     7	1
     8	1
     9	1
    10	1
    11	1
    12	1
    13	1
    14	1
    15	1
    16	1
    17	1
    18	1
    19	1
    20	1
    21	1
    22	1
    23	1
    24	1
    25	1
    26	1
    27	1
    28	0
    29	0
    30	0
    31	0
    32	0
    33	0
    34	0
    35	0
    36	0
    37	0
    38	0
    39	0
    40	0
    41	0
    42	0
    43	0
    44	0
    45	0
    46	0
    47	0
    48	0
    49	0
    50	0
    51	0
    52	0
    53	0
    54	0
    55	0
    56	0
    57	0
    58	0
    59	0
    60	0
    61	0

Measurement: widthpulse
  step	widthpulse	FROM	TO
     1	6.22188e-09	1.66325e-08	2.28544e-08
     2	6.13264e-09	1.66754e-08	2.2808e-08
     3	6.04201e-09	1.67189e-08	2.2761e-08
     4	5.95009e-09	1.67631e-08	2.27132e-08
     5	5.85679e-09	1.6808e-08	2.26647e-08
     6	5.76201e-09	1.68536e-08	2.26156e-08
     7	5.66569e-09	1.69e-08	2.25657e-08
     8	5.56777e-09	1.69471e-08	2.25149e-08
     9	5.46807e-09	1.69952e-08	2.24633e-08
    10	5.36668e-09	1.70442e-08	2.24109e-08
    11	5.26339e-09	1.70941e-08	2.23574e-08
    12	5.15805e-09	1.71449e-08	2.2303e-08
    13	5.05047e-09	1.7197e-08	2.22474e-08
    14	4.94066e-09	1.72501e-08	2.21908e-08
    15	4.82847e-09	1.73044e-08	2.21329e-08
    16	4.7137e-09	1.73601e-08	2.20737e-08
    17	4.59612e-09	1.74171e-08	2.20132e-08
    18	4.47545e-09	1.74757e-08	2.19511e-08
    19	4.35146e-09	1.75359e-08	2.18874e-08
    20	4.22392e-09	1.75979e-08	2.18218e-08
    21	4.09249e-09	1.76619e-08	2.17544e-08
    22	3.95678e-09	1.7728e-08	2.16848e-08
    23	3.8163e-09	1.77965e-08	2.16128e-08
    24	3.67052e-09	1.78676e-08	2.15381e-08
    25	3.51881e-09	1.79416e-08	2.14604e-08
    26	3.36035e-09	1.80191e-08	2.13794e-08
    27	3.19409e-09	1.81005e-08	2.12946e-08
    28	3.01867e-09	1.81865e-08	2.12051e-08
    29	2.83275e-09	1.82776e-08	2.11103e-08
    30	2.63366e-09	1.83755e-08	2.10091e-08
    31	2.41853e-09	1.84812e-08	2.08997e-08
    32	2.18202e-09	1.85977e-08	2.07798e-08
    33	1.91695e-09	1.87285e-08	2.06455e-08
    34	1.60936e-09	1.88805e-08	2.04899e-08
    35	1.22636e-09	1.90704e-08	2.02967e-08
    36	6.47515e-10	1.93579e-08	2.00054e-08
    37	0	0	0
    38	0	0	0
    39	0	0	0
    40	0	0	0
    41	0	0	0
    42	0	0	0
    43	0	0	0
    44	0	0	0
    45	0	0	0
    46	0	0	0
    47	0	0	0
    48	0	0	0
    49	0	0	0
    50	0	0	0
    51	0	0	0
    52	0	0	0
    53	0	0	0
    54	0	0	0
    55	0	0	0
    56	0	0	0
    57	0	0	0
    58	0	0	0
    59	0	0	0
    60	0	0	0
    61	0	0	0

Total elapsed time: 18.341 seconds.

