LTspice 24.0.12 for Windows
Circuit: * C:\Users\smili\OneDrive\Documents\GitHub\Laboratorio_6_7_ITeDA\LTSpice\Septiembre - Analisis de fuente de problemas\threshold_calculator_new_ajustada_a_ojo.asc
Start Time: Fri Aug 30 14:42:55 2024
solver = Normal
Maximum thread count: 12



WARNING: Less than two connections to node input_1pe.  This node is used by v1.
WARNING: Less than two connections to node input_2pe.  This node is used by v6.
Direct Newton iteration for .op point succeeded.
.step vt=0.13



.step vt=0.1301



.step vt=0.1302



.step vt=0.1303



.step vt=0.1304



.step vt=0.1305



.step vt=0.1306



.step vt=0.1307



.step vt=0.1308



.step vt=0.1309



.step vt=0.131



.step vt=0.1311



.step vt=0.1312



.step vt=0.1313



.step vt=0.1314



.step vt=0.1315



.step vt=0.1316



.step vt=0.1317



.step vt=0.1318



.step vt=0.1319



.step vt=0.132



.step vt=0.1321



.step vt=0.1322



.step vt=0.1323



.step vt=0.1324



.step vt=0.1325



.step vt=0.1326



.step vt=0.1327



.step vt=0.1328



.step vt=0.1329



.step vt=0.133



.step vt=0.1331



.step vt=0.1332



.step vt=0.1333



.step vt=0.1334



.step vt=0.1335



.step vt=0.1336



.step vt=0.1337



.step vt=0.1338



.step vt=0.1339



.step vt=0.134



.step vt=0.1341



.step vt=0.1342



.step vt=0.1343



.step vt=0.1344



.step vt=0.1345



.step vt=0.134599999999999



.step vt=0.134699999999999



.step vt=0.134799999999999



.step vt=0.134899999999999



.step vt=0.134999999999999



.step vt=0.135099999999999



.step vt=0.135199999999999



.step vt=0.135299999999999



.step vt=0.135399999999999



.step vt=0.135499999999999



.step vt=0.135599999999999



.step vt=0.135699999999999



.step vt=0.135799999999999



.step vt=0.135899999999999



.step vt=0.135999999999999



.step vt=0.136099999999999



.step vt=0.136199999999999



.step vt=0.136299999999999



.step vt=0.136399999999999



.step vt=0.136499999999999



.step vt=0.136599999999999



.step vt=0.136699999999999



.step vt=0.136799999999999



.step vt=0.136899999999999



.step vt=0.136999999999999



.step vt=0.137099999999999



.step vt=0.137199999999999



.step vt=0.137299999999999



.step vt=0.137399999999999



.step vt=0.137499999999999



.step vt=0.137599999999999



.step vt=0.137699999999999



.step vt=0.137799999999999



.step vt=0.137899999999999



.step vt=0.137999999999999



.step vt=0.138099999999999



.step vt=0.138199999999999



.step vt=0.138299999999999



.step vt=0.138399999999999



.step vt=0.138499999999999



.step vt=0.138599999999999



.step vt=0.138699999999999



.step vt=0.138799999999999



.step vt=0.138899999999999



.step vt=0.138999999999999



.step vt=0.139099999999999



.step vt=0.139199999999999



.step vt=0.139299999999999



.step vt=0.139399999999999



.step vt=0.139499999999999



.step vt=0.139599999999999



.step vt=0.139699999999999



.step vt=0.139799999999999



.step vt=0.139899999999999
tnom = 27
temp = 27
method = modified trap
.step vt=0.139999999999999


Measurement: ones
  step	floor(widthpulse/(3.125e-9))
     1	1
     2	1
     3	1
     4	1
     5	1
     6	1
     7	1
     8	1
     9	1
    10	1
    11	1
    12	1
    13	1
    14	1
    15	1
    16	1
    17	1
    18	1
    19	1
    20	1
    21	1
    22	1
    23	1
    24	1
    25	1
    26	1
    27	1
    28	1
    29	1
    30	1
    31	1
    32	1
    33	1
    34	1
    35	1
    36	1
    37	1
    38	1
    39	1
    40	1
    41	1
    42	1
    43	1
    44	1
    45	1
    46	1
    47	1
    48	1
    49	1
    50	1
    51	1
    52	1
    53	1
    54	1
    55	1
    56	1
    57	1
    58	1
    59	1
    60	1
    61	1
    62	1
    63	1
    64	1
    65	1
    66	1
    67	1
    68	1
    69	1
    70	1
    71	1
    72	1
    73	1
    74	1
    75	1
    76	1
    77	1
    78	1
    79	0
    80	0
    81	0
    82	0
    83	0
    84	0
    85	0
    86	0
    87	0
    88	0
    89	0
    90	0
    91	0
    92	0
    93	0
    94	0
    95	0
    96	0
    97	0
    98	0
    99	0
   100	0
   101	0

Measurement: widthpulse
  step	widthpulse	FROM	TO
     1	4.29372e-09	4.8056e-09	9.09932e-09
     2	4.28047e-09	4.81101e-09	9.09148e-09
     3	4.26719e-09	4.81644e-09	9.08362e-09
     4	4.25385e-09	4.82189e-09	9.07575e-09
     5	4.24045e-09	4.82738e-09	9.06783e-09
     6	4.22701e-09	4.83286e-09	9.05987e-09
     7	4.21357e-09	4.83834e-09	9.05191e-09
     8	4.20009e-09	4.84385e-09	9.04395e-09
     9	4.1866e-09	4.84939e-09	9.03599e-09
    10	4.17307e-09	4.85492e-09	9.02799e-09
    11	4.15954e-09	4.86046e-09	9.02e-09
    12	4.14598e-09	4.86599e-09	9.01197e-09
    13	4.13236e-09	4.87155e-09	9.00391e-09
    14	4.11861e-09	4.87719e-09	8.9958e-09
    15	4.10485e-09	4.88284e-09	8.98769e-09
    16	4.09104e-09	4.88854e-09	8.97958e-09
    17	4.07721e-09	4.89424e-09	8.97145e-09
    18	4.06335e-09	4.89995e-09	8.9633e-09
    19	4.04945e-09	4.90571e-09	8.95515e-09
    20	4.0355e-09	4.91147e-09	8.94697e-09
    21	4.02153e-09	4.91723e-09	8.93876e-09
    22	4.0075e-09	4.92299e-09	8.93049e-09
    23	3.99347e-09	4.92875e-09	8.92222e-09
    24	3.97941e-09	4.93451e-09	8.91392e-09
    25	3.96525e-09	4.94037e-09	8.90562e-09
    26	3.95104e-09	4.94626e-09	8.89731e-09
    27	3.93681e-09	4.95217e-09	8.88898e-09
    28	3.9225e-09	4.95813e-09	8.88063e-09
    29	3.90815e-09	4.9641e-09	8.87225e-09
    30	3.89373e-09	4.97007e-09	8.8638e-09
    31	3.87927e-09	4.97606e-09	8.85533e-09
    32	3.86477e-09	4.98209e-09	8.84686e-09
    33	3.85027e-09	4.98812e-09	8.83839e-09
    34	3.83575e-09	4.99415e-09	8.82989e-09
    35	3.8212e-09	5.00018e-09	8.82138e-09
    36	3.80658e-09	5.00626e-09	8.81284e-09
    37	3.79184e-09	5.01241e-09	8.80425e-09
    38	3.777e-09	5.0186e-09	8.7956e-09
    39	3.76212e-09	5.02483e-09	8.78695e-09
    40	3.74724e-09	5.03105e-09	8.7783e-09
    41	3.73229e-09	5.03732e-09	8.76961e-09
    42	3.7173e-09	5.04362e-09	8.76091e-09
    43	3.70229e-09	5.04991e-09	8.7522e-09
    44	3.68724e-09	5.0562e-09	8.74345e-09
    45	3.67214e-09	5.0625e-09	8.73464e-09
    46	3.65698e-09	5.06881e-09	8.72579e-09
    47	3.64171e-09	5.07522e-09	8.71693e-09
    48	3.62635e-09	5.08168e-09	8.70804e-09
    49	3.61097e-09	5.08817e-09	8.69914e-09
    50	3.59552e-09	5.09471e-09	8.69023e-09
    51	3.58003e-09	5.10125e-09	8.68128e-09
    52	3.56451e-09	5.10779e-09	8.6723e-09
    53	3.54883e-09	5.11441e-09	8.66324e-09
    54	3.53312e-09	5.12102e-09	8.65414e-09
    55	3.51742e-09	5.12763e-09	8.64504e-09
    56	3.50171e-09	5.13424e-09	8.63595e-09
    57	3.48588e-09	5.14093e-09	8.62681e-09
    58	3.46996e-09	5.14769e-09	8.61766e-09
    59	3.45393e-09	5.15452e-09	8.60845e-09
    60	3.43779e-09	5.16136e-09	8.59915e-09
    61	3.42161e-09	5.16823e-09	8.58983e-09
    62	3.40536e-09	5.17515e-09	8.58051e-09
    63	3.38909e-09	5.18207e-09	8.57116e-09
    64	3.37279e-09	5.189e-09	8.56178e-09
    65	3.35647e-09	5.19592e-09	8.55239e-09
    66	3.34008e-09	5.20287e-09	8.54295e-09
    67	3.32347e-09	5.20995e-09	8.53342e-09
    68	3.30677e-09	5.21708e-09	8.52385e-09
    69	3.29e-09	5.22427e-09	8.51427e-09
    70	3.27315e-09	5.23148e-09	8.50464e-09
    71	3.25631e-09	5.2387e-09	8.49501e-09
    72	3.23936e-09	5.24598e-09	8.48534e-09
    73	3.22235e-09	5.25328e-09	8.47563e-09
    74	3.20526e-09	5.26058e-09	8.46584e-09
    75	3.18808e-09	5.26789e-09	8.45596e-09
    76	3.17079e-09	5.27529e-09	8.44608e-09
    77	3.15342e-09	5.28278e-09	8.4362e-09
    78	3.13591e-09	5.29036e-09	8.42627e-09
    79	3.11837e-09	5.29795e-09	8.41631e-09
    80	3.10069e-09	5.3056e-09	8.40629e-09
    81	3.08286e-09	5.31328e-09	8.39613e-09
    82	3.06501e-09	5.32096e-09	8.38597e-09
    83	3.04717e-09	5.32863e-09	8.3758e-09
    84	3.02924e-09	5.33633e-09	8.36558e-09
    85	3.01113e-09	5.34421e-09	8.35534e-09
    86	2.9929e-09	5.35214e-09	8.34503e-09
    87	2.97447e-09	5.36016e-09	8.33463e-09
    88	2.95596e-09	5.36819e-09	8.32415e-09
    89	2.93741e-09	5.37624e-09	8.31365e-09
    90	2.91872e-09	5.38438e-09	8.3031e-09
    91	2.90002e-09	5.39252e-09	8.29254e-09
    92	2.88126e-09	5.40065e-09	8.28191e-09
    93	2.86231e-09	5.40891e-09	8.27122e-09
    94	2.84311e-09	5.41728e-09	8.26039e-09
    95	2.82375e-09	5.42576e-09	8.24951e-09
    96	2.80438e-09	5.43425e-09	8.23862e-09
    97	2.78486e-09	5.44284e-09	8.2277e-09
    98	2.76528e-09	5.45143e-09	8.21672e-09
    99	2.74562e-09	5.46003e-09	8.20565e-09
   100	2.72576e-09	5.46863e-09	8.1944e-09
   101	2.70569e-09	5.47745e-09	8.18314e-09

Total elapsed time: 12.318 seconds.

