LTspice 24.0.12 for Windows
Circuit: * C:\Users\smili\OneDrive\Documents\GitHub\Laboratorio_6_7_ITeDA\LTSpice\Septiembre - Analisis de fuente de problemas\threshold_calculator_only_preamp.asc
Start Time: Thu Aug 29 12:07:01 2024
solver = Normal
Maximum thread count: 12



WARNING: Less than two connections to node input_1pe.  This node is used by v1.
WARNING: Less than two connections to node input_2pe.  This node is used by v6.
Direct Newton iteration for .op point succeeded.
.step vt=0.0052



.step vt=0.00521



.step vt=0.00522



.step vt=0.00523



.step vt=0.00524



.step vt=0.00525



.step vt=0.00526



.step vt=0.00527



.step vt=0.00528



.step vt=0.00529



.step vt=0.0053



.step vt=0.00531



.step vt=0.00532



.step vt=0.00533



.step vt=0.00533999999999999



.step vt=0.00534999999999999



.step vt=0.00535999999999999



.step vt=0.00536999999999999



.step vt=0.00537999999999999



.step vt=0.00538999999999999



.step vt=0.00539999999999999



.step vt=0.00540999999999999



.step vt=0.00541999999999999



.step vt=0.00542999999999999



.step vt=0.00543999999999999



.step vt=0.00544999999999999



.step vt=0.00545999999999999



.step vt=0.00546999999999999



.step vt=0.00547999999999999



.step vt=0.00548999999999999



.step vt=0.00549999999999999



.step vt=0.00550999999999999



.step vt=0.00551999999999999



.step vt=0.00552999999999999



.step vt=0.00553999999999999



.step vt=0.00554999999999999



.step vt=0.00555999999999999



.step vt=0.00556999999999999



.step vt=0.00557999999999999



.step vt=0.00558999999999998



.step vt=0.00559999999999998



.step vt=0.00560999999999998



.step vt=0.00561999999999998



.step vt=0.00562999999999998



.step vt=0.00563999999999998



.step vt=0.00564999999999998



.step vt=0.00565999999999998



.step vt=0.00566999999999998



.step vt=0.00567999999999998



.step vt=0.00568999999999998



.step vt=0.00569999999999998



.step vt=0.00570999999999998



.step vt=0.00571999999999998



.step vt=0.00572999999999998



.step vt=0.00573999999999998



.step vt=0.00574999999999998



.step vt=0.00575999999999998



.step vt=0.00576999999999998



.step vt=0.00577999999999998



.step vt=0.00578999999999998



.step vt=0.00579999999999998



.step vt=0.00580999999999998



.step vt=0.00581999999999998



.step vt=0.00582999999999997



.step vt=0.00583999999999997



.step vt=0.00584999999999997



.step vt=0.00585999999999997



.step vt=0.00586999999999997



.step vt=0.00587999999999997



.step vt=0.00588999999999997



.step vt=0.00589999999999997



.step vt=0.00590999999999997



.step vt=0.00591999999999997



.step vt=0.00592999999999997



.step vt=0.00593999999999997



.step vt=0.00594999999999997



.step vt=0.00595999999999997



.step vt=0.00596999999999997



.step vt=0.00597999999999997



.step vt=0.00598999999999997
tnom = 27
temp = 27
method = modified trap
.step vt=0.00599999999999997


Measurement: ones
  step	floor(widthpulse/(3.125e-9))
     1	5
     2	5
     3	5
     4	5
     5	5
     6	5
     7	5
     8	5
     9	5
    10	5
    11	5
    12	5
    13	4
    14	4
    15	4
    16	4
    17	4
    18	4
    19	4
    20	4
    21	4
    22	4
    23	4
    24	4
    25	4
    26	4
    27	3
    28	3
    29	3
    30	3
    31	3
    32	3
    33	3
    34	3
    35	3
    36	3
    37	3
    38	3
    39	2
    40	2
    41	2
    42	2
    43	2
    44	2
    45	2
    46	2
    47	1
    48	1
    49	1
    50	1
    51	1
    52	0
    53	0
    54	0
    55	0
    56	0
    57	0
    58	0
    59	0
    60	0
    61	0
    62	0
    63	0
    64	0
    65	0
    66	0
    67	0
    68	0
    69	0
    70	0
    71	0
    72	0
    73	0
    74	0
    75	0
    76	0
    77	0
    78	0
    79	0
    80	0
    81	0

Measurement: widthpulse
  step	widthpulse	FROM	TO
     1	1.76953e-08	1.13097e-08	2.9005e-08
     2	1.75148e-08	1.13775e-08	2.88924e-08
     3	1.7333e-08	1.1446e-08	2.8779e-08
     4	1.71498e-08	1.15152e-08	2.8665e-08
     5	1.69651e-08	1.15852e-08	2.85503e-08
     6	1.67788e-08	1.16561e-08	2.84349e-08
     7	1.6591e-08	1.17277e-08	2.83187e-08
     8	1.64016e-08	1.18002e-08	2.82017e-08
     9	1.62105e-08	1.18735e-08	2.8084e-08
    10	1.60176e-08	1.19478e-08	2.79654e-08
    11	1.58229e-08	1.2023e-08	2.78458e-08
    12	1.56262e-08	1.20992e-08	2.77254e-08
    13	1.54277e-08	1.21764e-08	2.76041e-08
    14	1.52271e-08	1.22547e-08	2.74817e-08
    15	1.50243e-08	1.2334e-08	2.73583e-08
    16	1.48194e-08	1.24145e-08	2.72339e-08
    17	1.46121e-08	1.24962e-08	2.71083e-08
    18	1.44024e-08	1.25791e-08	2.69815e-08
    19	1.41901e-08	1.26634e-08	2.68535e-08
    20	1.39753e-08	1.27489e-08	2.67242e-08
    21	1.37576e-08	1.2836e-08	2.65936e-08
    22	1.35371e-08	1.29245e-08	2.64615e-08
    23	1.33135e-08	1.30145e-08	2.6328e-08
    24	1.30866e-08	1.31062e-08	2.61928e-08
    25	1.28564e-08	1.31996e-08	2.6056e-08
    26	1.26226e-08	1.32948e-08	2.59175e-08
    27	1.2385e-08	1.3392e-08	2.5777e-08
    28	1.21435e-08	1.34912e-08	2.56347e-08
    29	1.18976e-08	1.35925e-08	2.54902e-08
    30	1.16473e-08	1.36962e-08	2.53435e-08
    31	1.13921e-08	1.38023e-08	2.51943e-08
    32	1.11317e-08	1.3911e-08	2.50427e-08
    33	1.08659e-08	1.40224e-08	2.48883e-08
    34	1.0594e-08	1.4137e-08	2.4731e-08
    35	1.03157e-08	1.42547e-08	2.45705e-08
    36	1.00305e-08	1.4376e-08	2.44065e-08
    37	9.73768e-09	1.45011e-08	2.42388e-08
    38	9.43656e-09	1.46303e-08	2.40669e-08
    39	9.12634e-09	1.47642e-08	2.38905e-08
    40	8.80599e-09	1.49031e-08	2.37091e-08
    41	8.47443e-09	1.50477e-08	2.35221e-08
    42	8.13026e-09	1.51986e-08	2.33289e-08
    43	7.77184e-09	1.53566e-08	2.31285e-08
    44	7.39694e-09	1.5523e-08	2.29199e-08
    45	7.00317e-09	1.56988e-08	2.2702e-08
    46	6.58696e-09	1.58858e-08	2.24728e-08
    47	6.14373e-09	1.60864e-08	2.22301e-08
    48	5.66715e-09	1.63037e-08	2.19708e-08
    49	5.14812e-09	1.65422e-08	2.16903e-08
    50	4.57192e-09	1.68094e-08	2.13813e-08
    51	3.9136e-09	1.71177e-08	2.10313e-08
    52	3.12173e-09	1.74927e-08	2.06144e-08
    53	2.04611e-09	1.80096e-08	2.00557e-08
    54	0	0	0
    55	0	0	0
    56	0	0	0
    57	0	0	0
    58	0	0	0
    59	0	0	0
    60	0	0	0
    61	0	0	0
    62	0	0	0
    63	0	0	0
    64	0	0	0
    65	0	0	0
    66	0	0	0
    67	0	0	0
    68	0	0	0
    69	0	0	0
    70	0	0	0
    71	0	0	0
    72	0	0	0
    73	0	0	0
    74	0	0	0
    75	0	0	0
    76	0	0	0
    77	0	0	0
    78	0	0	0
    79	0	0	0
    80	0	0	0
    81	0	0	0

Total elapsed time: 7.755 seconds.

