LTspice 24.0.9 for Windows
Circuit: * C:\Users\Usuario\OneDrive\Desktop\ITeDA\LTSpice\Modelos Importantes\FastShaper\fast-shaper-v4_ajustadocondata.asc
Start Time: Sun Aug  4 17:14:12 2024
solver = Normal
Maximum thread count: 12
tnom = 27
temp = 27
method = modified trap
Direct Newton iteration for .op point succeeded.
Total elapsed time: 0.043 seconds.

