LTspice 24.0.12 for Windows
Circuit: * C:\Users\smili\OneDrive\Documents\GitHub\Laboratorio_6_7_ITeDA\LTSpice\Calibracion\preamp_no_calib.asc
Start Time: Fri Sep 20 17:41:40 2024
solver = Normal
Maximum thread count: 12
tnom = 27
temp = 27
method = modified trap
WARNING: Node N002 is floating.

Direct Newton iteration for .op point succeeded.
Total elapsed time: 0.074 seconds.

