LTspice 24.0.12 for Windows
Circuit: * C:\Users\smili\OneDrive\Documents\GitHub\Laboratorio_6_7_ITeDA\LTSpice\Agosto - Version nueva de las simulaciones\bode_circuito_completo_sin_capacitirores_en_preamp.asc
Start Time: Fri Aug 30 14:17:29 2024
solver = Normal
Maximum thread count: 12
tnom = 27
temp = 27
method = modified trap
v2: Removing PWL point (5.00167e-11,0)
Direct Newton iteration for .op point succeeded.
Total elapsed time: 0.405 seconds.

