LTspice 24.0.9 for Windows
Circuit: * C:\Users\Usuario\Documents\Laboratorio_6_7_ITeDA\LTSpice\Agosto - Version nueva de las simulaciones\bode_circuito_completo_sin_capacitirores_en_preamp.asc
Start Time: Sat Aug 17 16:18:46 2024
solver = Normal
Maximum thread count: 12
tnom = 27
temp = 27
method = modified trap
v2: Removing PWL point (5.00167e-11,0)
v2: Removing PWL point (1.15005e-06,0)
v2: Removing PWL point (2.30005e-06,0)
v2: Removing PWL point (3.45005e-06,0)
v2: Removing PWL point (4.60005e-06,0)
v2: Removing PWL point (5.75005e-06,0)
v2: Removing PWL point (6.90005e-06,0)
v2: Removing PWL point (8.05005e-06,0)
v2: Removing PWL point (9.20005e-06,0)
v2: Removing PWL point (1.03501e-05,0)
v2: Removing PWL point (1.15001e-05,0)
v2: Removing PWL point (1.26501e-05,0)
v2: Removing PWL point (1.38001e-05,0)
v2: Removing PWL point (1.49501e-05,0)
v2: Removing PWL point (1.61001e-05,0)
v2: Removing PWL point (1.72501e-05,0)
v2: Removing PWL point (1.84001e-05,0)
v2: Removing PWL point (1.95501e-05,0)
v2: Removing PWL point (2.07001e-05,0)
v2: Removing PWL point (2.18501e-05,0)
v2: Removing PWL point (2.30001e-05,0)
v2: Removing PWL point (2.41501e-05,0)
v2: Removing PWL point (2.53001e-05,0)
v2: Removing PWL point (2.64501e-05,0)
v2: Removing PWL point (2.76001e-05,0)
v2: Removing PWL point (2.87501e-05,0)
v2: Removing PWL point (2.99001e-05,0)
v2: Removing PWL point (3.10501e-05,0)
v2: Removing PWL point (3.22001e-05,0)
v2: Removing PWL point (3.33501e-05,0)
v2: Removing PWL point (3.45001e-05,0)
v2: Removing PWL point (3.56501e-05,0)
v2: Removing PWL point (3.68001e-05,0)
v2: Removing PWL point (3.79501e-05,0)
v2: Removing PWL point (3.91001e-05,0)
v2: Removing PWL point (4.14001e-05,0)
v2: Removing PWL point (4.25501e-05,0)
v2: Removing PWL point (4.37001e-05,0)
v2: Removing PWL point (4.48501e-05,0)
v2: Removing PWL point (4.60001e-05,0)
v2: Removing PWL point (4.71501e-05,0)
v2: Removing PWL point (4.83001e-05,0)
v2: Removing PWL point (4.94501e-05,0)
v2: Removing PWL point (5.06001e-05,0)
v2: Removing PWL point (5.17501e-05,0)
v2: Removing PWL point (5.29001e-05,0)
v2: Removing PWL point (5.40501e-05,0)
v2: Removing PWL point (5.52001e-05,0)
v2: Removing PWL point (5.63501e-05,0)
v2: Removing PWL point (5.75001e-05,0)
v2: Removing PWL point (5.86501e-05,0)
v2: Removing PWL point (5.98001e-05,0)
v2: Removing PWL point (6.09501e-05,0)
v2: Removing PWL point (6.21001e-05,0)
v2: Removing PWL point (6.32501e-05,0)
v2: Removing PWL point (6.44001e-05,0)
v2: Removing PWL point (6.55501e-05,0)
v2: Removing PWL point (6.67001e-05,0)
v2: Removing PWL point (6.78501e-05,0)
v2: Removing PWL point (6.90001e-05,0)
v2: Removing PWL point (7.01501e-05,0)
v2: Removing PWL point (7.13001e-05,0)
v2: Removing PWL point (7.24501e-05,0)
v2: Removing PWL point (7.36001e-05,0)
v2: Removing PWL point (7.47501e-05,0)
v2: Removing PWL point (7.59001e-05,0)
v2: Removing PWL point (7.70501e-05,0)
v2: Removing PWL point (7.82001e-05,0)
v2: Removing PWL point (7.93501e-05,0)
v2: Removing PWL point (8.05001e-05,0)
v2: Removing PWL point (8.16501e-05,0)
v2: Removing PWL point (8.28001e-05,0)
v2: Removing PWL point (8.39501e-05,0)
v2: Removing PWL point (8.51001e-05,0)
v2: Removing PWL point (8.62501e-05,0)
v2: Removing PWL point (8.74001e-05,0)
v2: Removing PWL point (8.85501e-05,0)
v2: Removing PWL point (8.97001e-05,0)
v2: Removing PWL point (9.08501e-05,0)
v2: Removing PWL point (9.20001e-05,0)
v2: Removing PWL point (9.31501e-05,0)
v2: Removing PWL point (9.54501e-05,0)
v2: Removing PWL point (9.66001e-05,0)
v2: Removing PWL point (9.77501e-05,0)
v2: Removing PWL point (9.89001e-05,0)
v2: Removing PWL point (0.00010005,0)
v2: Removing PWL point (0.0001012,0)
v2: Removing PWL point (0.00010235,0)
v2: Removing PWL point (0.0001035,0)
v2: Removing PWL point (0.00010465,0)
v2: Removing PWL point (0.0001058,0)
v2: Removing PWL point (0.00010695,0)
v2: Removing PWL point (0.0001081,0)
v2: Removing PWL point (0.00010925,0)
v2: Removing PWL point (0.0001104,0)
v2: Removing PWL point (0.00011155,0)
v2: Removing PWL point (0.0001127,0)
v2: Removing PWL point (0.00011385,0)
v2: Removing PWL point (0.000115,0)
v2: Removing PWL point (0.00011615,0)
v2: Removing PWL point (0.0001173,0)
v2: Removing PWL point (0.00011845,0)
v2: Removing PWL point (0.0001196,0)
v2: Removing PWL point (0.00012075,0)
v2: Removing PWL point (0.0001219,0)
v2: Removing PWL point (0.00012305,0)
v2: Removing PWL point (0.0001242,0)
v2: Removing PWL point (0.00012535,0)
v2: Removing PWL point (0.0001265,0)
v2: Removing PWL point (0.00012765,0)
v2: Removing PWL point (0.0001288,0)
v2: Removing PWL point (0.00012995,0)
v2: Removing PWL point (0.0001311,0)
v2: Removing PWL point (0.00013225,0)
v2: Removing PWL point (0.0001334,0)
v2: Removing PWL point (0.00013455,0)
v2: Removing PWL point (0.0001357,0)
v2: Removing PWL point (0.00013685,0)
v2: Removing PWL point (0.000138,0)
v2: Removing PWL point (0.00013915,0)
v2: Removing PWL point (0.0001403,0)
v2: Removing PWL point (0.00014145,0)
v2: Removing PWL point (0.0001426,0)
v2: Removing PWL point (0.00014375,0)
v2: Removing PWL point (0.0001449,0)
v2: Removing PWL point (0.00014605,0)
v2: Removing PWL point (0.0001472,0)
v2: Removing PWL point (0.00014835,0)
v2: Removing PWL point (0.0001495,0)
v2: Removing PWL point (0.00015065,0)
v2: Removing PWL point (0.0001518,0)
v2: Removing PWL point (0.00015295,0)
v2: Removing PWL point (0.0001541,0)
v2: Removing PWL point (0.00015525,0)
v2: Removing PWL point (0.0001564,0)
v2: Removing PWL point (0.00015755,0)
v2: Removing PWL point (0.0001587,0)
v2: Removing PWL point (0.00015985,0)
v2: Removing PWL point (0.000161,0)
v2: Removing PWL point (0.00016215,0)
v2: Removing PWL point (0.0001633,0)
v2: Removing PWL point (0.00016445,0)
v2: Removing PWL point (0.0001656,0)
v2: Removing PWL point (0.00016675,0)
v2: Removing PWL point (0.0001679,0)
v2: Removing PWL point (0.00016905,0)
v2: Removing PWL point (0.0001702,0)
v2: Removing PWL point (0.00017135,0)
v2: Removing PWL point (0.0001725,0)
v2: Removing PWL point (0.00017365,0)
v2: Removing PWL point (0.0001748,0)
v2: Removing PWL point (0.00017595,0)
v2: Removing PWL point (0.0001771,0)
v2: Removing PWL point (0.00017825,0)
v2: Removing PWL point (0.0001794,0)
v2: Removing PWL point (0.00018055,0)
v2: Removing PWL point (0.0001817,0)
v2: Removing PWL point (0.00018285,0)
v2: Removing PWL point (0.000184,0)
v2: Removing PWL point (0.00018515,0)
v2: Removing PWL point (0.0001863,0)
v2: Removing PWL point (0.00018745,0)
v2: Removing PWL point (0.0001886,0)
v2: Removing PWL point (0.00018975,0)
v2: Removing PWL point (0.0001909,0)
v2: Removing PWL point (0.00019205,0)
v2: Removing PWL point (0.0001932,0)
v2: Removing PWL point (0.00019435,0)
v2: Removing PWL point (0.0001955,0)
v2: Removing PWL point (0.00019665,0)
v2: Removing PWL point (0.0001978,0)
v2: Removing PWL point (0.00019895,0)
v2: Removing PWL point (0.0002001,0)
v2: Removing PWL point (0.00020125,0)
v2: Removing PWL point (0.0002024,0)
v2: Removing PWL point (0.00020355,0)
v2: Removing PWL point (0.0002047,0)
v2: Removing PWL point (0.00020585,0)
v2: Removing PWL point (0.000207,0)
v2: Removing PWL point (0.00020815,0)
v2: Removing PWL point (0.0002093,0)
v2: Removing PWL point (0.00021045,0)
v2: Removing PWL point (0.0002116,0)
v2: Removing PWL point (0.00021275,0)
v2: Removing PWL point (0.0002139,0)
v2: Removing PWL point (0.00021505,0)
v2: Removing PWL point (0.0002162,0)
v2: Removing PWL point (0.00021735,0)
v2: Removing PWL point (0.0002185,0)
v2: Removing PWL point (0.00021965,0)
v2: Removing PWL point (0.0002208,0)
v2: Removing PWL point (0.00022195,0)
v2: Removing PWL point (0.0002231,0)
v2: Removing PWL point (0.00022425,0)
v2: Removing PWL point (0.0002254,0)
v2: Removing PWL point (0.00022655,0)
v2: Removing PWL point (0.0002277,0)
v2: Removing PWL point (0.00022885,0)
v2: Removing PWL point (0.00023,0)
v2: Removing PWL point (0.00023115,0)
v2: Removing PWL point (0.0002323,0)
v2: Removing PWL point (0.00023345,0)
v2: Removing PWL point (0.0002346,0)
v2: Removing PWL point (0.00023575,0)
v2: Removing PWL point (0.0002369,0)
v2: Removing PWL point (0.00023805,0)
v2: Removing PWL point (0.0002392,0)
v2: Removing PWL point (0.00024035,0)
v2: Removing PWL point (0.0002415,0)
v2: Removing PWL point (0.00024265,0)
v2: Removing PWL point (0.0002438,0)
v2: Removing PWL point (0.00024495,0)
v2: Removing PWL point (0.0002461,0)
v2: Removing PWL point (0.00024725,0)
v2: Removing PWL point (0.0002484,0)
v2: Removing PWL point (0.00024955,0)
v2: Removing PWL point (0.0002507,0)
v2: Removing PWL point (0.00025185,0)
v2: Removing PWL point (0.000253,0)
v2: Removing PWL point (0.00025415,0)
v2: Removing PWL point (0.0002553,0)
v2: Removing PWL point (0.00025645,0)
v2: Removing PWL point (0.0002576,0)
v2: Removing PWL point (0.00025875,0)
v2: Removing PWL point (0.0002599,0)
v2: Removing PWL point (0.00026105,0)
v2: Removing PWL point (0.0002622,0)
v2: Removing PWL point (0.00026335,0)
v2: Removing PWL point (0.0002645,0)
v2: Removing PWL point (0.00026565,0)
v2: Removing PWL point (0.0002668,0)
v2: Removing PWL point (0.00026795,0)
v2: Removing PWL point (0.0002691,0)
v2: Removing PWL point (0.00027025,0)
v2: Removing PWL point (0.0002714,0)
v2: Removing PWL point (0.00027255,0)
v2: Removing PWL point (0.0002737,0)
v2: Removing PWL point (0.00027485,0)
v2: Removing PWL point (0.000276,0)
v2: Removing PWL point (0.00027715,0)
v2: Removing PWL point (0.0002783,0)
v2: Removing PWL point (0.00027945,0)
v2: Removing PWL point (0.0002806,0)
v2: Removing PWL point (0.00028175,0)
v2: Removing PWL point (0.0002829,0)
v2: Removing PWL point (0.00028405,0)
v2: Removing PWL point (0.0002852,0)
v2: Removing PWL point (0.00028635,0)
v2: Removing PWL point (0.0002875,0)
v2: Removing PWL point (0.00028865,0)
v2: Removing PWL point (0.0002898,0)
v2: Removing PWL point (0.00029095,0)
v2: Removing PWL point (0.0002921,0)
v2: Removing PWL point (0.00029325,0)
v2: Removing PWL point (0.0002944,0)
v2: Removing PWL point (0.00029555,0)
v2: Removing PWL point (0.0002967,0)
v2: Removing PWL point (0.00029785,0)
v2: Removing PWL point (0.000299,0)
v2: Removing PWL point (0.00030015,0)
v2: Removing PWL point (0.0003013,0)
v2: Removing PWL point (0.00030245,0)
v2: Removing PWL point (0.0003036,0)
v2: Removing PWL point (0.00030475,0)
v2: Removing PWL point (0.0003059,0)
v2: Removing PWL point (0.00030705,0)
v2: Removing PWL point (0.0003082,0)
v2: Removing PWL point (0.00030935,0)
v2: Removing PWL point (0.0003105,0)
v2: Removing PWL point (0.00031165,0)
v2: Removing PWL point (0.0003128,0)
v2: Removing PWL point (0.00031395,0)
v2: Removing PWL point (0.0003151,0)
v2: Removing PWL point (0.00031625,0)
v2: Removing PWL point (0.0003174,0)
v2: Removing PWL point (0.00031855,0)
v2: Removing PWL point (0.0003197,0)
v2: Removing PWL point (0.00032085,0)
v2: Removing PWL point (0.000322,0)
v2: Removing PWL point (0.00032315,0)
v2: Removing PWL point (0.0003243,0)
v2: Removing PWL point (0.00032545,0)
v2: Removing PWL point (0.0003266,0)
v2: Removing PWL point (0.00032775,0)
v2: Removing PWL point (0.0003289,0)
v2: Removing PWL point (0.00033005,0)
v2: Removing PWL point (0.0003312,0)
v2: Removing PWL point (0.00033235,0)
v2: Removing PWL point (0.0003335,0)
v2: Removing PWL point (0.00033465,0)
v2: Removing PWL point (0.0003358,0)
v2: Removing PWL point (0.00033695,0)
v2: Removing PWL point (0.0003381,0)
v2: Removing PWL point (0.00033925,0)
v2: Removing PWL point (0.0003404,0)
v2: Removing PWL point (0.00034155,0)
v2: Removing PWL point (0.0003427,0)
v2: Removing PWL point (0.00034385,0)
v2: Removing PWL point (0.000345,0)
v2: Removing PWL point (0.00034615,0)
v2: Removing PWL point (0.0003473,0)
v2: Removing PWL point (0.00034845,0)
v2: Removing PWL point (0.0003496,0)
v2: Removing PWL point (0.00035075,0)
v2: Removing PWL point (0.00035305,0)
v2: Removing PWL point (0.0003542,0)
v2: Removing PWL point (0.00035535,0)
v2: Removing PWL point (0.0003565,0)
v2: Removing PWL point (0.00035765,0)
v2: Removing PWL point (0.0003588,0)
v2: Removing PWL point (0.00035995,0)
v2: Removing PWL point (0.0003611,0)
v2: Removing PWL point (0.00036225,0)
v2: Removing PWL point (0.0003634,0)
v2: Removing PWL point (0.00036455,0)
v2: Removing PWL point (0.0003657,0)
v2: Removing PWL point (0.00036685,0)
v2: Removing PWL point (0.000368,0)
v2: Removing PWL point (0.00036915,0)
v2: Removing PWL point (0.0003703,0)
v2: Removing PWL point (0.00037145,0)
v2: Removing PWL point (0.0003726,0)
v2: Removing PWL point (0.00037375,0)
v2: Removing PWL point (0.0003749,0)
v2: Removing PWL point (0.00037605,0)
v2: Removing PWL point (0.0003772,0)
v2: Removing PWL point (0.00037835,0)
v2: Removing PWL point (0.0003795,0)
v2: Removing PWL point (0.00038065,0)
v2: Removing PWL point (0.0003818,0)
v2: Removing PWL point (0.00038295,0)
v2: Removing PWL point (0.0003841,0)
v2: Removing PWL point (0.0003864,0)
v2: Removing PWL point (0.00038755,0)
v2: Removing PWL point (0.0003887,0)
v2: Removing PWL point (0.00038985,0)
v2: Removing PWL point (0.000391,0)
v2: Removing PWL point (0.00039215,0)
v2: Removing PWL point (0.0003933,0)
v2: Removing PWL point (0.00039445,0)
v2: Removing PWL point (0.0003956,0)
v2: Removing PWL point (0.00039675,0)
v2: Removing PWL point (0.0003979,0)
v2: Removing PWL point (0.00039905,0)
v2: Removing PWL point (0.0004002,0)
v2: Removing PWL point (0.00040135,0)
v2: Removing PWL point (0.0004025,0)
v2: Removing PWL point (0.00040365,0)
v2: Removing PWL point (0.0004048,0)
v2: Removing PWL point (0.00040595,0)
v2: Removing PWL point (0.0004071,0)
v2: Removing PWL point (0.00040825,0)
v2: Removing PWL point (0.0004094,0)
v2: Removing PWL point (0.00041055,0)
v2: Removing PWL point (0.0004117,0)
v2: Removing PWL point (0.00041285,0)
v2: Removing PWL point (0.000414,0)
v2: Removing PWL point (0.00041515,0)
v2: Removing PWL point (0.0004163,0)
v2: Removing PWL point (0.00041745,0)
v2: Removing PWL point (0.0004186,0)
v2: Removing PWL point (0.00041975,0)
v2: Removing PWL point (0.0004209,0)
v2: Removing PWL point (0.00042205,0)
v2: Removing PWL point (0.0004232,0)
v2: Removing PWL point (0.00042435,0)
v2: Removing PWL point (0.0004255,0)
v2: Removing PWL point (0.00042665,0)
v2: Removing PWL point (0.0004278,0)
v2: Removing PWL point (0.00042895,0)
v2: Removing PWL point (0.0004301,0)
v2: Removing PWL point (0.00043125,0)
v2: Removing PWL point (0.0004324,0)
v2: Removing PWL point (0.00043355,0)
v2: Removing PWL point (0.0004347,0)
v2: Removing PWL point (0.00043585,0)
v2: Removing PWL point (0.000437,0)
v2: Removing PWL point (0.00043815,0)
v2: Removing PWL point (0.0004393,0)
v2: Removing PWL point (0.00044045,0)
v2: Removing PWL point (0.0004416,0)
v2: Removing PWL point (0.00044275,0)
v2: Removing PWL point (0.0004439,0)
v2: Removing PWL point (0.00044505,0)
v2: Removing PWL point (0.0004462,0)
v2: Removing PWL point (0.00044735,0)
v2: Removing PWL point (0.0004485,0)
v2: Removing PWL point (0.00044965,0)
v2: Removing PWL point (0.0004508,0)
v2: Removing PWL point (0.00045195,0)
v2: Removing PWL point (0.0004531,0)
v2: Removing PWL point (0.00045425,0)
v2: Removing PWL point (0.0004554,0)
v2: Removing PWL point (0.00045655,0)
v2: Removing PWL point (0.0004577,0)
v2: Removing PWL point (0.00045885,0)
v2: Removing PWL point (0.00046,0)
v2: Removing PWL point (0.00046115,0)
v2: Removing PWL point (0.0004623,0)
v2: Removing PWL point (0.00046345,0)
v2: Removing PWL point (0.0004646,0)
v2: Removing PWL point (0.00046575,0)
v2: Removing PWL point (0.0004669,0)
v2: Removing PWL point (0.00046805,0)
v2: Removing PWL point (0.0004692,0)
v2: Removing PWL point (0.00047035,0)
v2: Removing PWL point (0.0004715,0)
v2: Removing PWL point (0.00047265,0)
v2: Removing PWL point (0.0004738,0)
v2: Removing PWL point (0.00047495,0)
v2: Removing PWL point (0.0004761,0)
v2: Removing PWL point (0.00047725,0)
v2: Removing PWL point (0.0004784,0)
v2: Removing PWL point (0.00047955,0)
v2: Removing PWL point (0.0004807,0)
v2: Removing PWL point (0.00048185,0)
v2: Removing PWL point (0.000483,0)
v2: Removing PWL point (0.00048415,0)
v2: Removing PWL point (0.0004853,0)
v2: Removing PWL point (0.00048645,0)
v2: Removing PWL point (0.0004876,0)
v2: Removing PWL point (0.00048875,0)
v2: Removing PWL point (0.0004899,0)
v2: Removing PWL point (0.00049105,0)
v2: Removing PWL point (0.0004922,0)
v2: Removing PWL point (0.00049335,0)
v2: Removing PWL point (0.0004945,0)
v2: Removing PWL point (0.00049565,0)
v2: Removing PWL point (0.0004968,0)
v2: Removing PWL point (0.00050025,0)
v2: Removing PWL point (0.0005014,0)
v2: Removing PWL point (0.00050255,0)
v2: Removing PWL point (0.0005037,0)
v2: Removing PWL point (0.00050485,0)
v2: Removing PWL point (0.000506,0)
v2: Removing PWL point (0.00050715,0)
v2: Removing PWL point (0.0005083,0)
v2: Removing PWL point (0.00050945,0)
v2: Removing PWL point (0.0005106,0)
v2: Removing PWL point (0.00051175,0)
v2: Removing PWL point (0.0005129,0)
v2: Removing PWL point (0.00051405,0)
v2: Removing PWL point (0.0005152,0)
v2: Removing PWL point (0.00051635,0)
v2: Removing PWL point (0.0005175,0)
v2: Removing PWL point (0.00051865,0)
v2: Removing PWL point (0.0005198,0)
v2: Removing PWL point (0.00052095,0)
v2: Removing PWL point (0.0005221,0)
v2: Removing PWL point (0.00052325,0)
v2: Removing PWL point (0.0005244,0)
v2: Removing PWL point (0.00052555,0)
v2: Removing PWL point (0.0005267,0)
v2: Removing PWL point (0.00052785,0)
v2: Removing PWL point (0.000529,0)
v2: Removing PWL point (0.00053015,0)
v2: Removing PWL point (0.0005313,0)
v2: Removing PWL point (0.00053245,0)
v2: Removing PWL point (0.0005336,0)
v2: Removing PWL point (0.00053475,0)
v2: Removing PWL point (0.0005359,0)
v2: Removing PWL point (0.00053705,0)
v2: Removing PWL point (0.0005382,0)
v2: Removing PWL point (0.00053935,0)
v2: Removing PWL point (0.0005405,0)
v2: Removing PWL point (0.00054165,0)
v2: Removing PWL point (0.0005428,0)
v2: Removing PWL point (0.00054395,0)
v2: Removing PWL point (0.0005451,0)
v2: Removing PWL point (0.00054625,0)
v2: Removing PWL point (0.0005474,0)
v2: Removing PWL point (0.00054855,0)
v2: Removing PWL point (0.0005497,0)
v2: Removing PWL point (0.00055085,0)
v2: Removing PWL point (0.000552,0)
v2: Removing PWL point (0.00055315,0)
v2: Removing PWL point (0.0005543,0)
v2: Removing PWL point (0.00055545,0)
v2: Removing PWL point (0.0005566,0)
v2: Removing PWL point (0.00055775,0)
v2: Removing PWL point (0.0005589,0)
v2: Removing PWL point (0.00056005,0)
v2: Removing PWL point (0.0005612,0)
v2: Removing PWL point (0.00056235,0)
v2: Removing PWL point (0.0005635,0)
v2: Removing PWL point (0.00056465,0)
v2: Removing PWL point (0.0005658,0)
v2: Removing PWL point (0.00056695,0)
v2: Removing PWL point (0.0005681,0)
v2: Removing PWL point (0.00056925,0)
v2: Removing PWL point (0.0005704,0)
v2: Removing PWL point (0.00057155,0)
v2: Removing PWL point (0.0005727,0)
v2: Removing PWL point (0.00057385,0)
v2: Removing PWL point (0.000575,0)
v2: Removing PWL point (0.00057615,0)
v2: Removing PWL point (0.0005773,0)
v2: Removing PWL point (0.00057845,0)
v2: Removing PWL point (0.0005796,0)
v2: Removing PWL point (0.00058075,0)
v2: Removing PWL point (0.0005819,0)
v2: Removing PWL point (0.00058305,0)
v2: Removing PWL point (0.0005842,0)
v2: Removing PWL point (0.00058535,0)
v2: Removing PWL point (0.0005865,0)
v2: Removing PWL point (0.00058765,0)
v2: Removing PWL point (0.0005888,0)
v2: Removing PWL point (0.00058995,0)
v2: Removing PWL point (0.0005911,0)
v2: Removing PWL point (0.00059225,0)
v2: Removing PWL point (0.0005934,0)
v2: Removing PWL point (0.00059455,0)
v2: Removing PWL point (0.0005957,0)
v2: Removing PWL point (0.00059685,0)
v2: Removing PWL point (0.00059915,0)
v2: Removing PWL point (0.0006003,0)
v2: Removing PWL point (0.00060145,0)
v2: Removing PWL point (0.0006026,0)
v2: Removing PWL point (0.00060375,0)
v2: Removing PWL point (0.0006049,0)
v2: Removing PWL point (0.00060605,0)
v2: Removing PWL point (0.0006072,0)
v2: Removing PWL point (0.00060835,0)
v2: Removing PWL point (0.0006095,0)
v2: Removing PWL point (0.00061065,0)
v2: Removing PWL point (0.0006118,0)
v2: Removing PWL point (0.00061295,0)
v2: Removing PWL point (0.0006141,0)
v2: Removing PWL point (0.00061525,0)
v2: Removing PWL point (0.0006164,0)
v2: Removing PWL point (0.00061755,0)
v2: Removing PWL point (0.0006187,0)
v2: Removing PWL point (0.00061985,0)
v2: Removing PWL point (0.000621,0)
v2: Removing PWL point (0.00062215,0)
v2: Removing PWL point (0.0006233,0)
v2: Removing PWL point (0.00062445,0)
v2: Removing PWL point (0.0006256,0)
v2: Removing PWL point (0.00062675,0)
v2: Removing PWL point (0.0006279,0)
v2: Removing PWL point (0.00062905,0)
v2: Removing PWL point (0.0006302,0)
v2: Removing PWL point (0.00063135,0)
v2: Removing PWL point (0.0006325,0)
v2: Removing PWL point (0.00063365,0)
v2: Removing PWL point (0.0006348,0)
v2: Removing PWL point (0.00063595,0)
v2: Removing PWL point (0.0006371,0)
v2: Removing PWL point (0.00063825,0)
v2: Removing PWL point (0.0006394,0)
v2: Removing PWL point (0.00064055,0)
v2: Removing PWL point (0.0006417,0)
v2: Removing PWL point (0.00064285,0)
v2: Removing PWL point (0.000644,0)
v2: Removing PWL point (0.00064515,0)
v2: Removing PWL point (0.0006463,0)
v2: Removing PWL point (0.00064745,0)
v2: Removing PWL point (0.0006486,0)
v2: Removing PWL point (0.00064975,0)
v2: Removing PWL point (0.0006509,0)
v2: Removing PWL point (0.00065205,0)
v2: Removing PWL point (0.00065435,0)
v2: Removing PWL point (0.0006555,0)
v2: Removing PWL point (0.00065665,0)
v2: Removing PWL point (0.0006578,0)
v2: Removing PWL point (0.00065895,0)
v2: Removing PWL point (0.0006601,0)
v2: Removing PWL point (0.00066125,0)
v2: Removing PWL point (0.0006624,0)
v2: Removing PWL point (0.00066355,0)
v2: Removing PWL point (0.0006647,0)
v2: Removing PWL point (0.00066585,0)
v2: Removing PWL point (0.000667,0)
v2: Removing PWL point (0.00066815,0)
v2: Removing PWL point (0.0006693,0)
v2: Removing PWL point (0.00067045,0)
v2: Removing PWL point (0.0006716,0)
v2: Removing PWL point (0.00067275,0)
v2: Removing PWL point (0.0006739,0)
v2: Removing PWL point (0.00067505,0)
v2: Removing PWL point (0.0006762,0)
v2: Removing PWL point (0.00067735,0)
v2: Removing PWL point (0.0006785,0)
v2: Removing PWL point (0.00067965,0)
v2: Removing PWL point (0.0006808,0)
v2: Removing PWL point (0.00068195,0)
v2: Removing PWL point (0.0006831,0)
v2: Removing PWL point (0.00068425,0)
v2: Removing PWL point (0.0006854,0)
v2: Removing PWL point (0.00068655,0)
v2: Removing PWL point (0.0006877,0)
v2: Removing PWL point (0.00068885,0)
v2: Removing PWL point (0.00069,0)
v2: Removing PWL point (0.00069115,0)
v2: Removing PWL point (0.0006923,0)
v2: Removing PWL point (0.00069345,0)
v2: Removing PWL point (0.0006946,0)
v2: Removing PWL point (0.00069575,0)
v2: Removing PWL point (0.0006969,0)
v2: Removing PWL point (0.00069805,0)
v2: Removing PWL point (0.0006992,0)
v2: Removing PWL point (0.00070035,0)
v2: Removing PWL point (0.0007015,0)
v2: Removing PWL point (0.00070265,0)
v2: Removing PWL point (0.0007038,0)
v2: Removing PWL point (0.00070495,0)
v2: Removing PWL point (0.0007061,0)
v2: Removing PWL point (0.00070725,0)
v2: Removing PWL point (0.0007084,0)
v2: Removing PWL point (0.00070955,0)
v2: Removing PWL point (0.0007107,0)
v2: Removing PWL point (0.00071185,0)
v2: Removing PWL point (0.000713,0)
v2: Removing PWL point (0.00071415,0)
v2: Removing PWL point (0.0007153,0)
v2: Removing PWL point (0.00071645,0)
v2: Removing PWL point (0.0007176,0)
v2: Removing PWL point (0.00071875,0)
v2: Removing PWL point (0.0007199,0)
v2: Removing PWL point (0.00072105,0)
v2: Removing PWL point (0.0007222,0)
v2: Removing PWL point (0.00072335,0)
v2: Removing PWL point (0.0007245,0)
v2: Removing PWL point (0.00072565,0)
v2: Removing PWL point (0.0007268,0)
v2: Removing PWL point (0.00072795,0)
v2: Removing PWL point (0.0007291,0)
v2: Removing PWL point (0.00073025,0)
v2: Removing PWL point (0.0007314,0)
v2: Removing PWL point (0.00073255,0)
v2: Removing PWL point (0.0007337,0)
v2: Removing PWL point (0.00073485,0)
v2: Removing PWL point (0.000736,0)
v2: Removing PWL point (0.00073715,0)
v2: Removing PWL point (0.0007383,0)
v2: Removing PWL point (0.00073945,0)
v2: Removing PWL point (0.0007406,0)
v2: Removing PWL point (0.00074175,0)
v2: Removing PWL point (0.0007429,0)
v2: Removing PWL point (0.00074405,0)
v2: Removing PWL point (0.0007452,0)
v2: Removing PWL point (0.00074635,0)
v2: Removing PWL point (0.0007475,0)
v2: Removing PWL point (0.00074865,0)
v2: Removing PWL point (0.0007498,0)
v2: Removing PWL point (0.00075095,0)
v2: Removing PWL point (0.0007521,0)
v2: Removing PWL point (0.00075325,0)
v2: Removing PWL point (0.0007544,0)
v2: Removing PWL point (0.00075555,0)
v2: Removing PWL point (0.0007567,0)
v2: Removing PWL point (0.00075785,0)
v2: Removing PWL point (0.000759,0)
v2: Removing PWL point (0.00076015,0)
v2: Removing PWL point (0.0007613,0)
v2: Removing PWL point (0.00076245,0)
v2: Removing PWL point (0.0007636,0)
v2: Removing PWL point (0.00076475,0)
v2: Removing PWL point (0.0007659,0)
v2: Removing PWL point (0.00076705,0)
v2: Removing PWL point (0.0007682,0)
v2: Removing PWL point (0.00076935,0)
v2: Removing PWL point (0.0007705,0)
v2: Removing PWL point (0.00077165,0)
v2: Removing PWL point (0.0007728,0)
v2: Removing PWL point (0.00077395,0)
v2: Removing PWL point (0.0007751,0)
v2: Removing PWL point (0.00077625,0)
v2: Removing PWL point (0.0007774,0)
v2: Removing PWL point (0.00077855,0)
v2: Removing PWL point (0.0007797,0)
v2: Removing PWL point (0.00078085,0)
v2: Removing PWL point (0.000782,0)
v2: Removing PWL point (0.00078315,0)
v2: Removing PWL point (0.0007843,0)
v2: Removing PWL point (0.00078545,0)
v2: Removing PWL point (0.0007866,0)
v2: Removing PWL point (0.00078775,0)
v2: Removing PWL point (0.0007889,0)
v2: Removing PWL point (0.00079005,0)
v2: Removing PWL point (0.0007912,0)
v2: Removing PWL point (0.00079235,0)
v2: Removing PWL point (0.00079465,0)
v2: Removing PWL point (0.0007958,0)
v2: Removing PWL point (0.00079695,0)
v2: Removing PWL point (0.0007981,0)
v2: Removing PWL point (0.00079925,0)
v2: Removing PWL point (0.00080155,0)
v2: Removing PWL point (0.0008027,0)
v2: Removing PWL point (0.00080385,0)
v2: Removing PWL point (0.000805,0)
v2: Removing PWL point (0.00080615,0)
v2: Removing PWL point (0.0008073,0)
v2: Removing PWL point (0.00080845,0)
v2: Removing PWL point (0.0008096,0)
v2: Removing PWL point (0.00081075,0)
v2: Removing PWL point (0.0008119,0)
v2: Removing PWL point (0.00081305,0)
v2: Removing PWL point (0.0008142,0)
v2: Removing PWL point (0.00081535,0)
v2: Removing PWL point (0.0008165,0)
v2: Removing PWL point (0.00081765,0)
v2: Removing PWL point (0.0008188,0)
v2: Removing PWL point (0.0008211,0)
v2: Removing PWL point (0.00082225,0)
v2: Removing PWL point (0.0008234,0)
v2: Removing PWL point (0.00082455,0)
v2: Removing PWL point (0.0008257,0)
v2: Removing PWL point (0.00082685,0)
v2: Removing PWL point (0.000828,0)
v2: Removing PWL point (0.00082915,0)
v2: Removing PWL point (0.0008303,0)
v2: Removing PWL point (0.00083145,0)
v2: Removing PWL point (0.0008326,0)
v2: Removing PWL point (0.00083375,0)
v2: Removing PWL point (0.0008349,0)
v2: Removing PWL point (0.00083605,0)
v2: Removing PWL point (0.0008372,0)
v2: Removing PWL point (0.00083835,0)
v2: Removing PWL point (0.0008395,0)
v2: Removing PWL point (0.00084065,0)
v2: Removing PWL point (0.0008418,0)
v2: Removing PWL point (0.00084295,0)
v2: Removing PWL point (0.0008441,0)
v2: Removing PWL point (0.00084525,0)
v2: Removing PWL point (0.0008464,0)
v2: Removing PWL point (0.00084755,0)
v2: Removing PWL point (0.0008487,0)
v2: Removing PWL point (0.000851,0)
v2: Removing PWL point (0.00085215,0)
v2: Removing PWL point (0.0008533,0)
v2: Removing PWL point (0.00085445,0)
v2: Removing PWL point (0.0008556,0)
v2: Removing PWL point (0.00085675,0)
v2: Removing PWL point (0.0008579,0)
v2: Removing PWL point (0.00085905,0)
v2: Removing PWL point (0.0008602,0)
v2: Removing PWL point (0.00086135,0)
v2: Removing PWL point (0.0008625,0)
v2: Removing PWL point (0.00086365,0)
v2: Removing PWL point (0.00086595,0)
v2: Removing PWL point (0.0008671,0)
v2: Removing PWL point (0.00086825,0)
v2: Removing PWL point (0.0008694,0)
v2: Removing PWL point (0.00087055,0)
v2: Removing PWL point (0.0008717,0)
v2: Removing PWL point (0.00087285,0)
v2: Removing PWL point (0.000874,0)
v2: Removing PWL point (0.00087515,0)
v2: Removing PWL point (0.0008763,0)
v2: Removing PWL point (0.00087745,0)
v2: Removing PWL point (0.0008786,0)
v2: Removing PWL point (0.00087975,0)
v2: Removing PWL point (0.0008809,0)
v2: Removing PWL point (0.00088205,0)
v2: Removing PWL point (0.0008832,0)
v2: Removing PWL point (0.00088435,0)
v2: Removing PWL point (0.0008855,0)
v2: Removing PWL point (0.00088665,0)
v2: Removing PWL point (0.0008878,0)
v2: Removing PWL point (0.00088895,0)
v2: Removing PWL point (0.0008901,0)
v2: Removing PWL point (0.00089125,0)
v2: Removing PWL point (0.0008924,0)
v2: Removing PWL point (0.00089355,0)
v2: Removing PWL point (0.0008947,0)
v2: Removing PWL point (0.00089585,0)
v2: Removing PWL point (0.000897,0)
v2: Removing PWL point (0.00089815,0)
v2: Removing PWL point (0.0008993,0)
v2: Removing PWL point (0.00090045,0)
v2: Removing PWL point (0.0009016,0)
v2: Removing PWL point (0.00090275,0)
v2: Removing PWL point (0.0009039,0)
v2: Removing PWL point (0.00090505,0)
v2: Removing PWL point (0.0009062,0)
v2: Removing PWL point (0.00090735,0)
v2: Removing PWL point (0.0009085,0)
v2: Removing PWL point (0.00090965,0)
v2: Removing PWL point (0.0009108,0)
v2: Removing PWL point (0.00091195,0)
v2: Removing PWL point (0.0009131,0)
v2: Removing PWL point (0.00091425,0)
v2: Removing PWL point (0.0009154,0)
v2: Removing PWL point (0.00091655,0)
v2: Removing PWL point (0.0009177,0)
v2: Removing PWL point (0.00091885,0)
v2: Removing PWL point (0.00092,0)
v2: Removing PWL point (0.00092115,0)
v2: Removing PWL point (0.0009223,0)
v2: Removing PWL point (0.00092345,0)
v2: Removing PWL point (0.0009246,0)
v2: Removing PWL point (0.00092575,0)
v2: Removing PWL point (0.0009269,0)
v2: Removing PWL point (0.00092805,0)
v2: Removing PWL point (0.0009292,0)
v2: Removing PWL point (0.00093035,0)
v2: Removing PWL point (0.0009315,0)
v2: Removing PWL point (0.00093265,0)
v2: Removing PWL point (0.0009338,0)
v2: Removing PWL point (0.00093495,0)
v2: Removing PWL point (0.0009361,0)
v2: Removing PWL point (0.00093725,0)
v2: Removing PWL point (0.0009384,0)
v2: Removing PWL point (0.00093955,0)
v2: Removing PWL point (0.0009407,0)
v2: Removing PWL point (0.00094185,0)
v2: Removing PWL point (0.000943,0)
v2: Removing PWL point (0.00094415,0)
v2: Removing PWL point (0.0009453,0)
v2: Removing PWL point (0.00094645,0)
v2: Removing PWL point (0.0009476,0)
v2: Removing PWL point (0.00094875,0)
v2: Removing PWL point (0.0009499,0)
v2: Removing PWL point (0.00095105,0)
v2: Removing PWL point (0.0009522,0)
v2: Removing PWL point (0.00095335,0)
v2: Removing PWL point (0.0009545,0)
v2: Removing PWL point (0.00095565,0)
v2: Removing PWL point (0.0009568,0)
v2: Removing PWL point (0.00095795,0)
v2: Removing PWL point (0.0009591,0)
v2: Removing PWL point (0.00096025,0)
v2: Removing PWL point (0.0009614,0)
v2: Removing PWL point (0.00096255,0)
v2: Removing PWL point (0.0009637,0)
v2: Removing PWL point (0.00096485,0)
v2: Removing PWL point (0.000966,0)
v2: Removing PWL point (0.00096715,0)
v2: Removing PWL point (0.0009683,0)
v2: Removing PWL point (0.00096945,0)
v2: Removing PWL point (0.0009706,0)
v2: Removing PWL point (0.00097175,0)
v2: Removing PWL point (0.0009729,0)
v2: Removing PWL point (0.00097405,0)
v2: Removing PWL point (0.0009752,0)
v2: Removing PWL point (0.00097635,0)
v2: Removing PWL point (0.0009775,0)
v2: Removing PWL point (0.00097865,0)
v2: Removing PWL point (0.0009798,0)
v2: Removing PWL point (0.00098095,0)
v2: Removing PWL point (0.0009821,0)
v2: Removing PWL point (0.00098325,0)
v2: Removing PWL point (0.0009844,0)
v2: Removing PWL point (0.00098555,0)
v2: Removing PWL point (0.0009867,0)
v2: Removing PWL point (0.00098785,0)
v2: Removing PWL point (0.000989,0)
v2: Removing PWL point (0.00099015,0)
v2: Removing PWL point (0.0009913,0)
v2: Removing PWL point (0.00099245,0)
v2: Removing PWL point (0.0009936,0)
v2: Removing PWL point (0.00099475,0)
v2: Removing PWL point (0.0009959,0)
v2: Removing PWL point (0.00099705,0)
v2: Removing PWL point (0.0009982,0)
v2: Removing PWL point (0.00099935,0)
v2: Removing PWL point (0.0010005,0)
v2: Removing PWL point (0.00100165,0)
v2: Removing PWL point (0.0010028,0)
v2: Removing PWL point (0.00100395,0)
v2: Removing PWL point (0.0010051,0)
v2: Removing PWL point (0.00100625,0)
v2: Removing PWL point (0.0010074,0)
v2: Removing PWL point (0.00100855,0)
v2: Removing PWL point (0.0010097,0)
v2: Removing PWL point (0.00101085,0)
v2: Removing PWL point (0.001012,0)
v2: Removing PWL point (0.00101315,0)
v2: Removing PWL point (0.0010143,0)
v2: Removing PWL point (0.00101545,0)
v2: Removing PWL point (0.0010166,0)
v2: Removing PWL point (0.00101775,0)
v2: Removing PWL point (0.0010189,0)
v2: Removing PWL point (0.00102005,0)
v2: Removing PWL point (0.0010212,0)
v2: Removing PWL point (0.00102235,0)
v2: Removing PWL point (0.0010235,0)
v2: Removing PWL point (0.00102465,0)
v2: Removing PWL point (0.0010258,0)
v2: Removing PWL point (0.00102695,0)
v2: Removing PWL point (0.0010281,0)
v2: Removing PWL point (0.00102925,0)
v2: Removing PWL point (0.0010304,0)
v2: Removing PWL point (0.00103155,0)
v2: Removing PWL point (0.0010327,0)
v2: Removing PWL point (0.00103385,0)
v2: Removing PWL point (0.001035,0)
v2: Removing PWL point (0.00103615,0)
v2: Removing PWL point (0.0010373,0)
v2: Removing PWL point (0.00103845,0)
v2: Removing PWL point (0.0010396,0)
v2: Removing PWL point (0.00104075,0)
v2: Removing PWL point (0.0010419,0)
v2: Removing PWL point (0.00104305,0)
v2: Removing PWL point (0.0010442,0)
v2: Removing PWL point (0.00104535,0)
v2: Removing PWL point (0.0010465,0)
v2: Removing PWL point (0.00104765,0)
v2: Removing PWL point (0.0010488,0)
v2: Removing PWL point (0.00104995,0)
v2: Removing PWL point (0.0010511,0)
v2: Removing PWL point (0.00105225,0)
v2: Removing PWL point (0.0010534,0)
v2: Removing PWL point (0.00105455,0)
v2: Removing PWL point (0.0010557,0)
v2: Removing PWL point (0.00105685,0)
v2: Removing PWL point (0.001058,0)
v2: Removing PWL point (0.00105915,0)
v2: Removing PWL point (0.0010603,0)
v2: Removing PWL point (0.00106145,0)
v2: Removing PWL point (0.0010626,0)
v2: Removing PWL point (0.00106375,0)
v2: Removing PWL point (0.0010649,0)
v2: Removing PWL point (0.00106605,0)
v2: Removing PWL point (0.0010672,0)
v2: Removing PWL point (0.00106835,0)
v2: Removing PWL point (0.0010695,0)
v2: Removing PWL point (0.00107065,0)
v2: Removing PWL point (0.0010718,0)
v2: Removing PWL point (0.00107295,0)
v2: Removing PWL point (0.0010741,0)
v2: Removing PWL point (0.00107525,0)
v2: Removing PWL point (0.0010764,0)
v2: Removing PWL point (0.00107755,0)
v2: Removing PWL point (0.0010787,0)
v2: Removing PWL point (0.00107985,0)
v2: Removing PWL point (0.001081,0)
v2: Removing PWL point (0.00108215,0)
v2: Removing PWL point (0.0010833,0)
v2: Removing PWL point (0.00108445,0)
v2: Removing PWL point (0.0010856,0)
v2: Removing PWL point (0.00108675,0)
v2: Removing PWL point (0.0010879,0)
v2: Removing PWL point (0.00108905,0)
v2: Removing PWL point (0.0010902,0)
v2: Removing PWL point (0.00109135,0)
v2: Removing PWL point (0.0010925,0)
v2: Removing PWL point (0.00109365,0)
v2: Removing PWL point (0.0010948,0)
v2: Removing PWL point (0.00109595,0)
v2: Removing PWL point (0.0010971,0)
v2: Removing PWL point (0.00109825,0)
v2: Removing PWL point (0.0010994,0)
v2: Removing PWL point (0.00110055,0)
v2: Removing PWL point (0.0011017,0)
v2: Removing PWL point (0.00110285,0)
v2: Removing PWL point (0.001104,0)
v2: Removing PWL point (0.00110515,0)
v2: Removing PWL point (0.0011063,0)
v2: Removing PWL point (0.00110745,0)
v2: Removing PWL point (0.0011086,0)
v2: Removing PWL point (0.00110975,0)
v2: Removing PWL point (0.0011109,0)
v2: Removing PWL point (0.00111205,0)
v2: Removing PWL point (0.0011132,0)
v2: Removing PWL point (0.00111435,0)
v2: Removing PWL point (0.0011155,0)
v2: Removing PWL point (0.00111665,0)
v2: Removing PWL point (0.0011178,0)
v2: Removing PWL point (0.00111895,0)
v2: Removing PWL point (0.0011201,0)
v2: Removing PWL point (0.00112125,0)
v2: Removing PWL point (0.0011224,0)
v2: Removing PWL point (0.00112355,0)
v2: Removing PWL point (0.0011247,0)
v2: Removing PWL point (0.00112585,0)
v2: Removing PWL point (0.001127,0)
v2: Removing PWL point (0.00112815,0)
v2: Removing PWL point (0.0011293,0)
v2: Removing PWL point (0.00113045,0)
v2: Removing PWL point (0.0011316,0)
v2: Removing PWL point (0.00113275,0)
v2: Removing PWL point (0.0011339,0)
v2: Removing PWL point (0.00113505,0)
v2: Removing PWL point (0.0011362,0)
v2: Removing PWL point (0.00113735,0)
v2: Removing PWL point (0.0011385,0)
v2: Removing PWL point (0.00113965,0)
v2: Removing PWL point (0.0011408,0)
v2: Removing PWL point (0.00114195,0)
v2: Removing PWL point (0.0011431,0)
v2: Removing PWL point (0.00114425,0)
v2: Removing PWL point (0.0011454,0)
v2: Removing PWL point (0.00114655,0)
v2: Removing PWL point (0.0011477,0)
v2: Removing PWL point (0.00114885,0)
v2: Removing PWL point (0.00115,0)
v2: Removing PWL point (0.0011523,0)
v2: Removing PWL point (0.00115345,0)
v2: Removing PWL point (0.0011546,0)
v2: Removing PWL point (0.00115575,0)
v2: Removing PWL point (0.0011569,0)
v2: Removing PWL point (0.00115805,0)
v2: Removing PWL point (0.0011592,0)
v2: Removing PWL point (0.0011615,0)
v2: Removing PWL point (0.00116265,0)
v2: Removing PWL point (0.0011661,0)
v2: Removing PWL point (0.00116725,0)
v2: Removing PWL point (0.0011684,0)
v2: Removing PWL point (0.00116955,0)
v2: Removing PWL point (0.0011707,0)
v2: Removing PWL point (0.00117185,0)
v2: Removing PWL point (0.001173,0)
v2: Removing PWL point (0.00117415,0)
v2: Removing PWL point (0.0011753,0)
v2: Removing PWL point (0.00117645,0)
v2: Removing PWL point (0.00117875,0)
v2: Removing PWL point (0.0011799,0)
v2: Removing PWL point (0.00118105,0)
v2: Removing PWL point (0.0011822,0)
v2: Removing PWL point (0.00118335,0)
v2: Removing PWL point (0.0011845,0)
v2: Removing PWL point (0.00118565,0)
v2: Removing PWL point (0.0011868,0)
v2: Removing PWL point (0.00118795,0)
v2: Removing PWL point (0.0011891,0)
v2: Removing PWL point (0.00119025,0)
v2: Removing PWL point (0.0011914,0)
v2: Removing PWL point (0.00119255,0)
v2: Removing PWL point (0.0011937,0)
v2: Removing PWL point (0.00119485,0)
v2: Removing PWL point (0.001196,0)
v2: Removing PWL point (0.00119715,0)
v2: Removing PWL point (0.0011983,0)
v2: Removing PWL point (0.00119945,0)
v2: Removing PWL point (0.0012006,0)
v2: Removing PWL point (0.00120175,0)
v2: Removing PWL point (0.0012029,0)
v2: Removing PWL point (0.00120405,0)
v2: Removing PWL point (0.0012052,0)
v2: Removing PWL point (0.00120635,0)
v2: Removing PWL point (0.0012075,0)
v2: Removing PWL point (0.00120865,0)
v2: Removing PWL point (0.0012098,0)
v2: Removing PWL point (0.00121095,0)
v2: Removing PWL point (0.0012121,0)
v2: Removing PWL point (0.00121325,0)
v2: Removing PWL point (0.0012144,0)
v2: Removing PWL point (0.00121555,0)
v2: Removing PWL point (0.0012167,0)
v2: Removing PWL point (0.00121785,0)
v2: Removing PWL point (0.001219,0)
v2: Removing PWL point (0.0012213,0)
v2: Removing PWL point (0.00122245,0)
v2: Removing PWL point (0.0012236,0)
v2: Removing PWL point (0.00122475,0)
v2: Removing PWL point (0.0012259,0)
v2: Removing PWL point (0.00122705,0)
v2: Removing PWL point (0.0012282,0)
v2: Removing PWL point (0.00122935,0)
v2: Removing PWL point (0.0012305,0)
v2: Removing PWL point (0.00123165,0)
v2: Removing PWL point (0.0012328,0)
v2: Removing PWL point (0.00123395,0)
v2: Removing PWL point (0.0012351,0)
v2: Removing PWL point (0.00123625,0)
v2: Removing PWL point (0.0012374,0)
v2: Removing PWL point (0.00123855,0)
v2: Removing PWL point (0.0012397,0)
v2: Removing PWL point (0.00124085,0)
v2: Removing PWL point (0.001242,0)
v2: Removing PWL point (0.00124315,0)
v2: Removing PWL point (0.0012443,0)
v2: Removing PWL point (0.00124545,0)
v2: Removing PWL point (0.0012466,0)
v2: Removing PWL point (0.00124775,0)
v2: Removing PWL point (0.0012489,0)
v2: Removing PWL point (0.00125005,0)
v2: Removing PWL point (0.0012512,0)
v2: Removing PWL point (0.00125235,0)
v2: Removing PWL point (0.0012535,0)
v2: Removing PWL point (0.00125465,0)
v2: Removing PWL point (0.0012558,0)
v2: Removing PWL point (0.00125695,0)
v2: Removing PWL point (0.0012581,0)
v2: Removing PWL point (0.00125925,0)
v2: Removing PWL point (0.0012604,0)
v2: Removing PWL point (0.00126155,0)
v2: Removing PWL point (0.0012627,0)
v2: Removing PWL point (0.00126385,0)
v2: Removing PWL point (0.001265,0)
v2: Removing PWL point (0.00126615,0)
v2: Removing PWL point (0.0012673,0)
v2: Removing PWL point (0.00126845,0)
v2: Removing PWL point (0.0012696,0)
v2: Removing PWL point (0.00127075,0)
v2: Removing PWL point (0.0012719,0)
v2: Removing PWL point (0.00127305,0)
v2: Removing PWL point (0.0012742,0)
v2: Removing PWL point (0.00127535,0)
v2: Removing PWL point (0.0012765,0)
v2: Removing PWL point (0.00127765,0)
v2: Removing PWL point (0.0012788,0)
v2: Removing PWL point (0.00127995,0)
v2: Removing PWL point (0.0012811,0)
v2: Removing PWL point (0.00128225,0)
v2: Removing PWL point (0.0012834,0)
v2: Removing PWL point (0.00128455,0)
v2: Removing PWL point (0.0012857,0)
v2: Removing PWL point (0.00128685,0)
v2: Removing PWL point (0.001288,0)
v2: Removing PWL point (0.00128915,0)
v2: Removing PWL point (0.0012903,0)
v2: Removing PWL point (0.00129145,0)
v2: Removing PWL point (0.0012926,0)
v2: Removing PWL point (0.00129375,0)
v2: Removing PWL point (0.0012949,0)
v2: Removing PWL point (0.00129605,0)
v2: Removing PWL point (0.0012972,0)
v2: Removing PWL point (0.00129835,0)
v2: Removing PWL point (0.0012995,0)
v2: Removing PWL point (0.00130065,0)
v2: Removing PWL point (0.0013018,0)
v2: Removing PWL point (0.00130295,0)
v2: Removing PWL point (0.0013041,0)
v2: Removing PWL point (0.00130525,0)
v2: Removing PWL point (0.0013064,0)
v2: Removing PWL point (0.00130755,0)
v2: Removing PWL point (0.0013087,0)
v2: Removing PWL point (0.00130985,0)
v2: Removing PWL point (0.001311,0)
v2: Removing PWL point (0.00131215,0)
v2: Removing PWL point (0.0013133,0)
v2: Removing PWL point (0.00131445,0)
v2: Removing PWL point (0.0013156,0)
v2: Removing PWL point (0.00131675,0)
v2: Removing PWL point (0.0013179,0)
v2: Removing PWL point (0.00131905,0)
v2: Removing PWL point (0.00132135,0)
v2: Removing PWL point (0.0013225,0)
v2: Removing PWL point (0.00132365,0)
v2: Removing PWL point (0.0013248,0)
v2: Removing PWL point (0.00132595,0)
v2: Removing PWL point (0.0013271,0)
v2: Removing PWL point (0.00132825,0)
v2: Removing PWL point (0.0013294,0)
v2: Removing PWL point (0.00133055,0)
v2: Removing PWL point (0.0013317,0)
v2: Removing PWL point (0.00133285,0)
v2: Removing PWL point (0.001334,0)
v2: Removing PWL point (0.00133515,0)
v2: Removing PWL point (0.0013363,0)
v2: Removing PWL point (0.00133745,0)
v2: Removing PWL point (0.0013386,0)
v2: Removing PWL point (0.00133975,0)
v2: Removing PWL point (0.0013409,0)
v2: Removing PWL point (0.00134205,0)
v2: Removing PWL point (0.0013432,0)
v2: Removing PWL point (0.00134435,0)
v2: Removing PWL point (0.0013455,0)
v2: Removing PWL point (0.00134665,0)
v2: Removing PWL point (0.0013478,0)
v2: Removing PWL point (0.00134895,0)
v2: Removing PWL point (0.0013501,0)
v2: Removing PWL point (0.00135125,0)
v2: Removing PWL point (0.0013524,0)
v2: Removing PWL point (0.00135355,0)
v2: Removing PWL point (0.0013547,0)
v2: Removing PWL point (0.00135585,0)
v2: Removing PWL point (0.001357,0)
v2: Removing PWL point (0.00135815,0)
v2: Removing PWL point (0.0013593,0)
v2: Removing PWL point (0.00136045,0)
v2: Removing PWL point (0.0013616,0)
v2: Removing PWL point (0.00136275,0)
v2: Removing PWL point (0.0013639,0)
v2: Removing PWL point (0.00136505,0)
v2: Removing PWL point (0.0013662,0)
v2: Removing PWL point (0.00136735,0)
v2: Removing PWL point (0.0013685,0)
v2: Removing PWL point (0.00136965,0)
v2: Removing PWL point (0.0013708,0)
v2: Removing PWL point (0.00137195,0)
v2: Removing PWL point (0.0013731,0)
v2: Removing PWL point (0.00137425,0)
v2: Removing PWL point (0.0013754,0)
v2: Removing PWL point (0.00137655,0)
v2: Removing PWL point (0.0013777,0)
v2: Removing PWL point (0.00137885,0)
v2: Removing PWL point (0.00138,0)
v2: Removing PWL point (0.00138115,0)
v2: Removing PWL point (0.0013823,0)
v2: Removing PWL point (0.00138345,0)
v2: Removing PWL point (0.0013846,0)
v2: Removing PWL point (0.00138575,0)
v2: Removing PWL point (0.0013869,0)
v2: Removing PWL point (0.00138805,0)
v2: Removing PWL point (0.0013892,0)
v2: Removing PWL point (0.00139035,0)
v2: Removing PWL point (0.0013915,0)
v2: Removing PWL point (0.00139265,0)
v2: Removing PWL point (0.0013938,0)
v2: Removing PWL point (0.00139495,0)
v2: Removing PWL point (0.0013961,0)
v2: Removing PWL point (0.00139725,0)
v2: Removing PWL point (0.00139955,0)
v2: Removing PWL point (0.0014007,0)
v2: Removing PWL point (0.00140185,0)
v2: Removing PWL point (0.001403,0)
v2: Removing PWL point (0.00140415,0)
v2: Removing PWL point (0.0014053,0)
v2: Removing PWL point (0.00140645,0)
v2: Removing PWL point (0.0014076,0)
v2: Removing PWL point (0.00140875,0)
v2: Removing PWL point (0.0014099,0)
v2: Removing PWL point (0.00141105,0)
v2: Removing PWL point (0.0014122,0)
v2: Removing PWL point (0.00141335,0)
v2: Removing PWL point (0.0014145,0)
v2: Removing PWL point (0.00141565,0)
v2: Removing PWL point (0.0014168,0)
v2: Removing PWL point (0.00141795,0)
v2: Removing PWL point (0.0014191,0)
v2: Removing PWL point (0.00142025,0)
v2: Removing PWL point (0.0014214,0)
v2: Removing PWL point (0.00142255,0)
v2: Removing PWL point (0.0014237,0)
v2: Removing PWL point (0.00142485,0)
v2: Removing PWL point (0.001426,0)
v2: Removing PWL point (0.00142715,0)
v2: Removing PWL point (0.0014283,0)
v2: Removing PWL point (0.00142945,0)
v2: Removing PWL point (0.0014306,0)
v2: Removing PWL point (0.00143175,0)
v2: Removing PWL point (0.0014329,0)
v2: Removing PWL point (0.00143405,0)
v2: Removing PWL point (0.0014352,0)
v2: Removing PWL point (0.00143635,0)
v2: Removing PWL point (0.0014375,0)
v2: Removing PWL point (0.00143865,0)
v2: Removing PWL point (0.0014398,0)
v2: Removing PWL point (0.00144095,0)
v2: Removing PWL point (0.0014421,0)
v2: Removing PWL point (0.00144325,0)
v2: Removing PWL point (0.0014444,0)
v2: Removing PWL point (0.00144555,0)
v2: Removing PWL point (0.0014467,0)
v2: Removing PWL point (0.00144785,0)
v2: Removing PWL point (0.001449,0)
v2: Removing PWL point (0.00145015,0)
v2: Removing PWL point (0.0014513,0)
v2: Removing PWL point (0.00145245,0)
v2: Removing PWL point (0.0014536,0)
v2: Removing PWL point (0.00145475,0)
v2: Removing PWL point (0.0014559,0)
v2: Removing PWL point (0.00145705,0)
v2: Removing PWL point (0.0014582,0)
v2: Removing PWL point (0.00145935,0)
v2: Removing PWL point (0.0014605,0)
v2: Removing PWL point (0.00146165,0)
v2: Removing PWL point (0.0014628,0)
v2: Removing PWL point (0.00146395,0)
v2: Removing PWL point (0.0014651,0)
v2: Removing PWL point (0.00146625,0)
v2: Removing PWL point (0.0014674,0)
v2: Removing PWL point (0.00146855,0)
v2: Removing PWL point (0.0014697,0)
v2: Removing PWL point (0.00147085,0)
v2: Removing PWL point (0.001472,0)
v2: Removing PWL point (0.00147315,0)
v2: Removing PWL point (0.0014743,0)
v2: Removing PWL point (0.00147545,0)
v2: Removing PWL point (0.0014766,0)
v2: Removing PWL point (0.00147775,0)
v2: Removing PWL point (0.0014789,0)
v2: Removing PWL point (0.00148005,0)
v2: Removing PWL point (0.0014812,0)
v2: Removing PWL point (0.00148235,0)
v2: Removing PWL point (0.0014835,0)
v2: Removing PWL point (0.00148465,0)
v2: Removing PWL point (0.0014858,0)
v2: Removing PWL point (0.00148695,0)
v2: Removing PWL point (0.0014881,0)
v2: Removing PWL point (0.00148925,0)
v2: Removing PWL point (0.0014904,0)
v2: Removing PWL point (0.00149155,0)
v2: Removing PWL point (0.0014927,0)
v2: Removing PWL point (0.00149385,0)
v2: Removing PWL point (0.001495,0)
v2: Removing PWL point (0.00149615,0)
v2: Removing PWL point (0.0014973,0)
v2: Removing PWL point (0.00149845,0)
v2: Removing PWL point (0.0014996,0)
v2: Removing PWL point (0.00150075,0)
v2: Removing PWL point (0.0015019,0)
v2: Removing PWL point (0.00150305,0)
v2: Removing PWL point (0.0015042,0)
v2: Removing PWL point (0.00150535,0)
v2: Removing PWL point (0.0015065,0)
v2: Removing PWL point (0.00150765,0)
v2: Removing PWL point (0.0015088,0)
v2: Removing PWL point (0.00150995,0)
v2: Removing PWL point (0.0015111,0)
v2: Removing PWL point (0.00151225,0)
v2: Removing PWL point (0.0015134,0)
v2: Removing PWL point (0.00151455,0)
v2: Removing PWL point (0.0015157,0)
v2: Removing PWL point (0.00151685,0)
v2: Removing PWL point (0.001518,0)
v2: Removing PWL point (0.00151915,0)
v2: Removing PWL point (0.0015203,0)
v2: Removing PWL point (0.00152145,0)
v2: Removing PWL point (0.0015226,0)
v2: Removing PWL point (0.00152375,0)
v2: Removing PWL point (0.00152605,0)
v2: Removing PWL point (0.0015272,0)
v2: Removing PWL point (0.00152835,0)
v2: Removing PWL point (0.0015295,0)
v2: Removing PWL point (0.00153065,0)
v2: Removing PWL point (0.0015318,0)
v2: Removing PWL point (0.00153295,0)
v2: Removing PWL point (0.0015341,0)
v2: Removing PWL point (0.00153525,0)
v2: Removing PWL point (0.0015364,0)
v2: Removing PWL point (0.00153755,0)
v2: Removing PWL point (0.0015387,0)
v2: Removing PWL point (0.00153985,0)
v2: Removing PWL point (0.001541,0)
v2: Removing PWL point (0.00154215,0)
v2: Removing PWL point (0.0015433,0)
v2: Removing PWL point (0.00154445,0)
v2: Removing PWL point (0.0015456,0)
v2: Removing PWL point (0.00154675,0)
v2: Removing PWL point (0.0015479,0)
v2: Removing PWL point (0.00154905,0)
v2: Removing PWL point (0.0015502,0)
v2: Removing PWL point (0.00155135,0)
v2: Removing PWL point (0.0015525,0)
v2: Removing PWL point (0.00155365,0)
v2: Removing PWL point (0.0015548,0)
v2: Removing PWL point (0.00155595,0)
v2: Removing PWL point (0.0015571,0)
v2: Removing PWL point (0.00155825,0)
v2: Removing PWL point (0.0015594,0)
v2: Removing PWL point (0.00156055,0)
v2: Removing PWL point (0.0015617,0)
v2: Removing PWL point (0.00156285,0)
v2: Removing PWL point (0.001564,0)
v2: Removing PWL point (0.00156515,0)
v2: Removing PWL point (0.0015663,0)
v2: Removing PWL point (0.00156745,0)
v2: Removing PWL point (0.0015686,0)
v2: Removing PWL point (0.00156975,0)
v2: Removing PWL point (0.0015709,0)
v2: Removing PWL point (0.00157205,0)
v2: Removing PWL point (0.0015732,0)
v2: Removing PWL point (0.00157435,0)
v2: Removing PWL point (0.0015755,0)
v2: Removing PWL point (0.00157665,0)
v2: Removing PWL point (0.0015778,0)
v2: Removing PWL point (0.00157895,0)
v2: Removing PWL point (0.0015801,0)
v2: Removing PWL point (0.00158125,0)
v2: Removing PWL point (0.0015824,0)
v2: Removing PWL point (0.00158355,0)
v2: Removing PWL point (0.0015847,0)
v2: Removing PWL point (0.00158585,0)
v2: Removing PWL point (0.001587,0)
v2: Removing PWL point (0.00158815,0)
v2: Removing PWL point (0.0015893,0)
v2: Removing PWL point (0.00159045,0)
v2: Removing PWL point (0.0015916,0)
v2: Removing PWL point (0.00159275,0)
v2: Removing PWL point (0.0015939,0)
v2: Removing PWL point (0.00159505,0)
v2: Removing PWL point (0.0015962,0)
v2: Removing PWL point (0.00159735,0)
v2: Removing PWL point (0.0015985,0)
v2: Removing PWL point (0.00159965,0)
v2: Removing PWL point (0.0016008,0)
v2: Removing PWL point (0.00160195,0)
v2: Removing PWL point (0.0016031,0)
v2: Removing PWL point (0.00160425,0)
v2: Removing PWL point (0.0016054,0)
v2: Removing PWL point (0.00160655,0)
v2: Removing PWL point (0.0016077,0)
v2: Removing PWL point (0.00160885,0)
v2: Removing PWL point (0.00161,0)
v2: Removing PWL point (0.00161115,0)
v2: Removing PWL point (0.0016123,0)
v2: Removing PWL point (0.00161345,0)
v2: Removing PWL point (0.0016146,0)
v2: Removing PWL point (0.00161575,0)
v2: Removing PWL point (0.0016169,0)
v2: Removing PWL point (0.00161805,0)
v2: Removing PWL point (0.0016192,0)
v2: Removing PWL point (0.0016215,0)
v2: Removing PWL point (0.00162265,0)
v2: Removing PWL point (0.0016238,0)
v2: Removing PWL point (0.00162495,0)
v2: Removing PWL point (0.0016261,0)
v2: Removing PWL point (0.00162725,0)
v2: Removing PWL point (0.0016284,0)
v2: Removing PWL point (0.00162955,0)
v2: Removing PWL point (0.0016307,0)
v2: Removing PWL point (0.00163185,0)
v2: Removing PWL point (0.001633,0)
v2: Removing PWL point (0.00163415,0)
v2: Removing PWL point (0.0016353,0)
v2: Removing PWL point (0.00163645,0)
v2: Removing PWL point (0.0016376,0)
v2: Removing PWL point (0.00163875,0)
v2: Removing PWL point (0.0016399,0)
v2: Removing PWL point (0.00164105,0)
v2: Removing PWL point (0.0016422,0)
v2: Removing PWL point (0.00164335,0)
v2: Removing PWL point (0.0016445,0)
v2: Removing PWL point (0.00164565,0)
v2: Removing PWL point (0.0016468,0)
v2: Removing PWL point (0.00164795,0)
v2: Removing PWL point (0.0016491,0)
v2: Removing PWL point (0.00165025,0)
v2: Removing PWL point (0.0016514,0)
v2: Removing PWL point (0.00165255,0)
v2: Removing PWL point (0.0016537,0)
v2: Removing PWL point (0.00165485,0)
v2: Removing PWL point (0.001656,0)
v2: Removing PWL point (0.00165715,0)
v2: Removing PWL point (0.0016583,0)
v2: Removing PWL point (0.00165945,0)
v2: Removing PWL point (0.0016606,0)
v2: Removing PWL point (0.00166175,0)
v2: Removing PWL point (0.0016629,0)
v2: Removing PWL point (0.00166405,0)
v2: Removing PWL point (0.0016652,0)
v2: Removing PWL point (0.00166635,0)
v2: Removing PWL point (0.0016675,0)
v2: Removing PWL point (0.00166865,0)
v2: Removing PWL point (0.0016698,0)
v2: Removing PWL point (0.00167095,0)
v2: Removing PWL point (0.0016721,0)
v2: Removing PWL point (0.00167325,0)
v2: Removing PWL point (0.0016744,0)
v2: Removing PWL point (0.00167555,0)
v2: Removing PWL point (0.0016767,0)
v2: Removing PWL point (0.00167785,0)
v2: Removing PWL point (0.001679,0)
v2: Removing PWL point (0.00168015,0)
v2: Removing PWL point (0.0016813,0)
v2: Removing PWL point (0.00168245,0)
v2: Removing PWL point (0.0016836,0)
v2: Removing PWL point (0.00168475,0)
v2: Removing PWL point (0.0016859,0)
v2: Removing PWL point (0.00168705,0)
v2: Removing PWL point (0.0016882,0)
v2: Removing PWL point (0.00168935,0)
v2: Removing PWL point (0.0016905,0)
v2: Removing PWL point (0.00169165,0)
v2: Removing PWL point (0.0016928,0)
v2: Removing PWL point (0.00169395,0)
v2: Removing PWL point (0.0016951,0)
v2: Removing PWL point (0.00169625,0)
v2: Removing PWL point (0.0016974,0)
v2: Removing PWL point (0.00169855,0)
v2: Removing PWL point (0.0016997,0)
v2: Removing PWL point (0.00170085,0)
v2: Removing PWL point (0.001702,0)
v2: Removing PWL point (0.00170315,0)
v2: Removing PWL point (0.0017043,0)
v2: Removing PWL point (0.00170545,0)
v2: Removing PWL point (0.0017066,0)
v2: Removing PWL point (0.00170775,0)
v2: Removing PWL point (0.0017089,0)
v2: Removing PWL point (0.00171005,0)
v2: Removing PWL point (0.0017112,0)
v2: Removing PWL point (0.00171235,0)
v2: Removing PWL point (0.0017135,0)
v2: Removing PWL point (0.00171465,0)
v2: Removing PWL point (0.0017158,0)
v2: Removing PWL point (0.00171695,0)
v2: Removing PWL point (0.0017181,0)
v2: Removing PWL point (0.00171925,0)
v2: Removing PWL point (0.0017204,0)
v2: Removing PWL point (0.00172155,0)
v2: Removing PWL point (0.0017227,0)
v2: Removing PWL point (0.00172385,0)
v2: Removing PWL point (0.001725,0)
v2: Removing PWL point (0.00172615,0)
v2: Removing PWL point (0.0017273,0)
v2: Removing PWL point (0.00172845,0)
v2: Removing PWL point (0.0017296,0)
v2: Removing PWL point (0.00173075,0)
v2: Removing PWL point (0.0017319,0)
v2: Removing PWL point (0.00173305,0)
v2: Removing PWL point (0.0017342,0)
v2: Removing PWL point (0.00173535,0)
v2: Removing PWL point (0.0017365,0)
v2: Removing PWL point (0.00173765,0)
v2: Removing PWL point (0.0017388,0)
v2: Removing PWL point (0.00173995,0)
v2: Removing PWL point (0.0017411,0)
v2: Removing PWL point (0.00174225,0)
v2: Removing PWL point (0.0017434,0)
v2: Removing PWL point (0.00174455,0)
v2: Removing PWL point (0.0017457,0)
v2: Removing PWL point (0.00174685,0)
v2: Removing PWL point (0.001748,0)
v2: Removing PWL point (0.00174915,0)
v2: Removing PWL point (0.0017503,0)
v2: Removing PWL point (0.00175145,0)
v2: Removing PWL point (0.0017526,0)
v2: Removing PWL point (0.00175375,0)
v2: Removing PWL point (0.0017549,0)
v2: Removing PWL point (0.00175605,0)
v2: Removing PWL point (0.0017572,0)
v2: Removing PWL point (0.00175835,0)
v2: Removing PWL point (0.0017595,0)
v2: Removing PWL point (0.00176065,0)
v2: Removing PWL point (0.0017618,0)
v2: Removing PWL point (0.00176295,0)
v2: Removing PWL point (0.0017641,0)
v2: Removing PWL point (0.00176525,0)
v2: Removing PWL point (0.0017664,0)
v2: Removing PWL point (0.00176755,0)
v2: Removing PWL point (0.0017687,0)
v2: Removing PWL point (0.00176985,0)
v2: Removing PWL point (0.001771,0)
v2: Removing PWL point (0.00177215,0)
v2: Removing PWL point (0.0017733,0)
v2: Removing PWL point (0.00177445,0)
v2: Removing PWL point (0.0017756,0)
v2: Removing PWL point (0.00177675,0)
v2: Removing PWL point (0.0017779,0)
v2: Removing PWL point (0.00177905,0)
v2: Removing PWL point (0.0017802,0)
v2: Removing PWL point (0.00178135,0)
v2: Removing PWL point (0.0017825,0)
v2: Removing PWL point (0.00178365,0)
v2: Removing PWL point (0.0017848,0)
v2: Removing PWL point (0.00178595,0)
v2: Removing PWL point (0.0017871,0)
v2: Removing PWL point (0.00178825,0)
v2: Removing PWL point (0.0017894,0)
v2: Removing PWL point (0.00179055,0)
v2: Removing PWL point (0.0017917,0)
v2: Removing PWL point (0.00179285,0)
v2: Removing PWL point (0.001794,0)
v2: Removing PWL point (0.00179515,0)
v2: Removing PWL point (0.0017963,0)
v2: Removing PWL point (0.00179745,0)
v2: Removing PWL point (0.0017986,0)
v2: Removing PWL point (0.00179975,0)
v2: Removing PWL point (0.0018009,0)
v2: Removing PWL point (0.00180205,0)
v2: Removing PWL point (0.0018032,0)
v2: Removing PWL point (0.00180435,0)
v2: Removing PWL point (0.0018055,0)
v2: Removing PWL point (0.00180665,0)
v2: Removing PWL point (0.0018078,0)
v2: Removing PWL point (0.00180895,0)
v2: Removing PWL point (0.0018101,0)
v2: Removing PWL point (0.00181125,0)
v2: Removing PWL point (0.0018124,0)
v2: Removing PWL point (0.00181355,0)
v2: Removing PWL point (0.0018147,0)
v2: Removing PWL point (0.00181585,0)
v2: Removing PWL point (0.001817,0)
v2: Removing PWL point (0.00181815,0)
v2: Removing PWL point (0.0018193,0)
v2: Removing PWL point (0.00182045,0)
v2: Removing PWL point (0.0018216,0)
v2: Removing PWL point (0.00182275,0)
v2: Removing PWL point (0.0018239,0)
v2: Removing PWL point (0.00182505,0)
v2: Removing PWL point (0.0018262,0)
v2: Removing PWL point (0.00182735,0)
v2: Removing PWL point (0.0018285,0)
v2: Removing PWL point (0.00182965,0)
v2: Removing PWL point (0.0018308,0)
v2: Removing PWL point (0.00183195,0)
v2: Removing PWL point (0.0018331,0)
v2: Removing PWL point (0.00183425,0)
v2: Removing PWL point (0.0018354,0)
v2: Removing PWL point (0.00183655,0)
v2: Removing PWL point (0.0018377,0)
v2: Removing PWL point (0.00183885,0)
v2: Removing PWL point (0.00184,0)
v2: Removing PWL point (0.00184115,0)
v2: Removing PWL point (0.0018423,0)
v2: Removing PWL point (0.00184345,0)
v2: Removing PWL point (0.0018446,0)
v2: Removing PWL point (0.00184575,0)
v2: Removing PWL point (0.0018469,0)
v2: Removing PWL point (0.00184805,0)
v2: Removing PWL point (0.0018492,0)
v2: Removing PWL point (0.00185035,0)
v2: Removing PWL point (0.0018515,0)
v2: Removing PWL point (0.00185265,0)
v2: Removing PWL point (0.0018538,0)
v2: Removing PWL point (0.00185495,0)
v2: Removing PWL point (0.0018561,0)
v2: Removing PWL point (0.00185725,0)
v2: Removing PWL point (0.0018584,0)
v2: Removing PWL point (0.00185955,0)
v2: Removing PWL point (0.0018607,0)
v2: Removing PWL point (0.00186185,0)
v2: Removing PWL point (0.001863,0)
v2: Removing PWL point (0.00186415,0)
v2: Removing PWL point (0.0018653,0)
v2: Removing PWL point (0.00186645,0)
v2: Removing PWL point (0.0018676,0)
v2: Removing PWL point (0.00186875,0)
v2: Removing PWL point (0.0018699,0)
v2: Removing PWL point (0.00187105,0)
v2: Removing PWL point (0.0018722,0)
v2: Removing PWL point (0.00187335,0)
v2: Removing PWL point (0.0018745,0)
v2: Removing PWL point (0.00187565,0)
v2: Removing PWL point (0.0018768,0)
v2: Removing PWL point (0.00187795,0)
v2: Removing PWL point (0.0018791,0)
v2: Removing PWL point (0.00188025,0)
v2: Removing PWL point (0.0018814,0)
v2: Removing PWL point (0.0018837,0)
v2: Removing PWL point (0.00188485,0)
v2: Removing PWL point (0.001886,0)
v2: Removing PWL point (0.00188715,0)
v2: Removing PWL point (0.0018883,0)
v2: Removing PWL point (0.00188945,0)
v2: Removing PWL point (0.0018906,0)
v2: Removing PWL point (0.00189175,0)
v2: Removing PWL point (0.0018929,0)
v2: Removing PWL point (0.00189405,0)
v2: Removing PWL point (0.0018952,0)
v2: Removing PWL point (0.00189635,0)
v2: Removing PWL point (0.0018975,0)
v2: Removing PWL point (0.00189865,0)
v2: Removing PWL point (0.0018998,0)
v2: Removing PWL point (0.00190095,0)
v2: Removing PWL point (0.0019021,0)
v2: Removing PWL point (0.00190325,0)
v2: Removing PWL point (0.0019044,0)
v2: Removing PWL point (0.00190555,0)
v2: Removing PWL point (0.0019067,0)
v2: Removing PWL point (0.00190785,0)
v2: Removing PWL point (0.001909,0)
v2: Removing PWL point (0.00191015,0)
v2: Removing PWL point (0.0019113,0)
v2: Removing PWL point (0.00191245,0)
v2: Removing PWL point (0.0019136,0)
v2: Removing PWL point (0.00191475,0)
v2: Removing PWL point (0.0019159,0)
v2: Removing PWL point (0.00191705,0)
v2: Removing PWL point (0.0019182,0)
v2: Removing PWL point (0.00191935,0)
v2: Removing PWL point (0.0019205,0)
v2: Removing PWL point (0.00192165,0)
v2: Removing PWL point (0.0019228,0)
v2: Removing PWL point (0.0019251,0)
v2: Removing PWL point (0.00192625,0)
v2: Removing PWL point (0.0019274,0)
v2: Removing PWL point (0.00192855,0)
v2: Removing PWL point (0.0019297,0)
v2: Removing PWL point (0.00193085,0)
v2: Removing PWL point (0.001932,0)
v2: Removing PWL point (0.00193315,0)
v2: Removing PWL point (0.0019343,0)
v2: Removing PWL point (0.00193545,0)
v2: Removing PWL point (0.0019366,0)
v2: Removing PWL point (0.00193775,0)
v2: Removing PWL point (0.0019389,0)
v2: Removing PWL point (0.00194005,0)
v2: Removing PWL point (0.0019412,0)
v2: Removing PWL point (0.00194235,0)
v2: Removing PWL point (0.0019435,0)
v2: Removing PWL point (0.00194465,0)
v2: Removing PWL point (0.0019458,0)
v2: Removing PWL point (0.00194695,0)
v2: Removing PWL point (0.0019481,0)
v2: Removing PWL point (0.00194925,0)
v2: Removing PWL point (0.0019504,0)
v2: Removing PWL point (0.00195155,0)
v2: Removing PWL point (0.0019527,0)
v2: Removing PWL point (0.00195385,0)
v2: Removing PWL point (0.001955,0)
v2: Removing PWL point (0.00195615,0)
v2: Removing PWL point (0.0019573,0)
v2: Removing PWL point (0.00195845,0)
v2: Removing PWL point (0.0019596,0)
v2: Removing PWL point (0.00196075,0)
v2: Removing PWL point (0.0019619,0)
v2: Removing PWL point (0.00196305,0)
v2: Removing PWL point (0.0019642,0)
v2: Removing PWL point (0.00196535,0)
v2: Removing PWL point (0.0019665,0)
v2: Removing PWL point (0.00196765,0)
v2: Removing PWL point (0.0019688,0)
v2: Removing PWL point (0.00196995,0)
v2: Removing PWL point (0.0019711,0)
v2: Removing PWL point (0.00197225,0)
v2: Removing PWL point (0.0019734,0)
v2: Removing PWL point (0.00197455,0)
v2: Removing PWL point (0.0019757,0)
v2: Removing PWL point (0.00197685,0)
v2: Removing PWL point (0.001978,0)
v2: Removing PWL point (0.00197915,0)
v2: Removing PWL point (0.0019803,0)
v2: Removing PWL point (0.00198145,0)
v2: Removing PWL point (0.0019826,0)
v2: Removing PWL point (0.00198375,0)
v2: Removing PWL point (0.0019849,0)
v2: Removing PWL point (0.00198605,0)
v2: Removing PWL point (0.0019872,0)
v2: Removing PWL point (0.00198835,0)
v2: Removing PWL point (0.0019895,0)
v2: Removing PWL point (0.00199065,0)
v2: Removing PWL point (0.0019918,0)
v2: Removing PWL point (0.00199295,0)
v2: Removing PWL point (0.0019941,0)
v2: Removing PWL point (0.00199525,0)
v2: Removing PWL point (0.0019964,0)
v2: Removing PWL point (0.00199755,0)
v2: Removing PWL point (0.0019987,0)
v2: Removing PWL point (0.00199985,0)
v2: Removing PWL point (0.002001,0)
v2: Removing PWL point (0.00200215,0)
v2: Removing PWL point (0.0020033,0)
v2: Removing PWL point (0.00200445,0)
v2: Removing PWL point (0.0020056,0)
v2: Removing PWL point (0.00200675,0)
v2: Removing PWL point (0.0020079,0)
v2: Removing PWL point (0.00200905,0)
v2: Removing PWL point (0.0020102,0)
v2: Removing PWL point (0.00201135,0)
v2: Removing PWL point (0.0020125,0)
v2: Removing PWL point (0.00201365,0)
v2: Removing PWL point (0.0020148,0)
v2: Removing PWL point (0.00201595,0)
v2: Removing PWL point (0.0020171,0)
v2: Removing PWL point (0.00201825,0)
v2: Removing PWL point (0.0020194,0)
v2: Removing PWL point (0.00202055,0)
v2: Removing PWL point (0.0020217,0)
v2: Removing PWL point (0.00202285,0)
v2: Removing PWL point (0.002024,0)
v2: Removing PWL point (0.00202515,0)
v2: Removing PWL point (0.0020263,0)
v2: Removing PWL point (0.00202745,0)
v2: Removing PWL point (0.0020286,0)
v2: Removing PWL point (0.00202975,0)
v2: Removing PWL point (0.0020309,0)
v2: Removing PWL point (0.00203205,0)
v2: Removing PWL point (0.0020332,0)
v2: Removing PWL point (0.00203435,0)
v2: Removing PWL point (0.0020355,0)
v2: Removing PWL point (0.00203665,0)
v2: Removing PWL point (0.0020378,0)
v2: Removing PWL point (0.00203895,0)
v2: Removing PWL point (0.0020401,0)
v2: Removing PWL point (0.00204125,0)
v2: Removing PWL point (0.0020424,0)
v2: Removing PWL point (0.00204355,0)
v2: Removing PWL point (0.0020447,0)
v2: Removing PWL point (0.00204585,0)
v2: Removing PWL point (0.002047,0)
v2: Removing PWL point (0.00204815,0)
v2: Removing PWL point (0.0020493,0)
v2: Removing PWL point (0.00205045,0)
v2: Removing PWL point (0.0020516,0)
v2: Removing PWL point (0.00205275,0)
v2: Removing PWL point (0.0020539,0)
v2: Removing PWL point (0.00205505,0)
v2: Removing PWL point (0.0020562,0)
v2: Removing PWL point (0.00205735,0)
v2: Removing PWL point (0.0020585,0)
v2: Removing PWL point (0.00205965,0)
v2: Removing PWL point (0.0020608,0)
v2: Removing PWL point (0.00206195,0)
v2: Removing PWL point (0.0020631,0)
v2: Removing PWL point (0.00206425,0)
v2: Removing PWL point (0.0020654,0)
v2: Removing PWL point (0.00206655,0)
v2: Removing PWL point (0.0020677,0)
v2: Removing PWL point (0.00206885,0)
v2: Removing PWL point (0.00207,0)
v2: Removing PWL point (0.00207115,0)
v2: Removing PWL point (0.0020723,0)
v2: Removing PWL point (0.00207345,0)
v2: Removing PWL point (0.0020746,0)
v2: Removing PWL point (0.0020769,0)
v2: Removing PWL point (0.00207805,0)
v2: Removing PWL point (0.0020792,0)
v2: Removing PWL point (0.00208035,0)
v2: Removing PWL point (0.0020815,0)
v2: Removing PWL point (0.00208265,0)
v2: Removing PWL point (0.0020838,0)
v2: Removing PWL point (0.00208495,0)
v2: Removing PWL point (0.0020861,0)
v2: Removing PWL point (0.00208725,0)
v2: Removing PWL point (0.0020884,0)
v2: Removing PWL point (0.00208955,0)
v2: Removing PWL point (0.0020907,0)
v2: Removing PWL point (0.00209185,0)
v2: Removing PWL point (0.002093,0)
v2: Removing PWL point (0.00209415,0)
v2: Removing PWL point (0.0020953,0)
v2: Removing PWL point (0.00209645,0)
v2: Removing PWL point (0.0020976,0)
v2: Removing PWL point (0.00209875,0)
v2: Removing PWL point (0.0020999,0)
v2: Removing PWL point (0.00210105,0)
v2: Removing PWL point (0.0021022,0)
v2: Removing PWL point (0.00210335,0)
v2: Removing PWL point (0.0021045,0)
v2: Removing PWL point (0.00210565,0)
v2: Removing PWL point (0.0021068,0)
v2: Removing PWL point (0.00210795,0)
v2: Removing PWL point (0.0021091,0)
v2: Removing PWL point (0.00211025,0)
v2: Removing PWL point (0.0021114,0)
v2: Removing PWL point (0.00211255,0)
v2: Removing PWL point (0.0021137,0)
v2: Removing PWL point (0.00211485,0)
v2: Removing PWL point (0.002116,0)
v2: Removing PWL point (0.00211715,0)
v2: Removing PWL point (0.0021183,0)
v2: Removing PWL point (0.00211945,0)
v2: Removing PWL point (0.0021206,0)
v2: Removing PWL point (0.00212175,0)
v2: Removing PWL point (0.0021229,0)
v2: Removing PWL point (0.00212405,0)
v2: Removing PWL point (0.0021252,0)
v2: Removing PWL point (0.00212635,0)
v2: Removing PWL point (0.0021275,0)
v2: Removing PWL point (0.00212865,0)
v2: Removing PWL point (0.0021298,0)
v2: Removing PWL point (0.00213095,0)
v2: Removing PWL point (0.0021321,0)
v2: Removing PWL point (0.00213325,0)
v2: Removing PWL point (0.0021344,0)
v2: Removing PWL point (0.00213555,0)
v2: Removing PWL point (0.0021367,0)
v2: Removing PWL point (0.00213785,0)
v2: Removing PWL point (0.002139,0)
v2: Removing PWL point (0.00214015,0)
v2: Removing PWL point (0.0021413,0)
v2: Removing PWL point (0.00214245,0)
v2: Removing PWL point (0.0021436,0)
v2: Removing PWL point (0.00214475,0)
v2: Removing PWL point (0.0021459,0)
v2: Removing PWL point (0.00214705,0)
v2: Removing PWL point (0.0021482,0)
v2: Removing PWL point (0.00214935,0)
v2: Removing PWL point (0.0021505,0)
v2: Removing PWL point (0.00215165,0)
v2: Removing PWL point (0.0021528,0)
v2: Removing PWL point (0.00215395,0)
v2: Removing PWL point (0.0021551,0)
v2: Removing PWL point (0.00215625,0)
v2: Removing PWL point (0.0021574,0)
v2: Removing PWL point (0.0021597,0)
v2: Removing PWL point (0.00216085,0)
v2: Removing PWL point (0.002162,0)
v2: Removing PWL point (0.00216315,0)
v2: Removing PWL point (0.0021643,0)
v2: Removing PWL point (0.00216545,0)
v2: Removing PWL point (0.0021666,0)
v2: Removing PWL point (0.00216775,0)
v2: Removing PWL point (0.0021689,0)
v2: Removing PWL point (0.00217005,0)
v2: Removing PWL point (0.0021712,0)
v2: Removing PWL point (0.00217235,0)
v2: Removing PWL point (0.0021735,0)
v2: Removing PWL point (0.00217465,0)
v2: Removing PWL point (0.0021758,0)
v2: Removing PWL point (0.00217695,0)
v2: Removing PWL point (0.0021781,0)
v2: Removing PWL point (0.00217925,0)
v2: Removing PWL point (0.0021804,0)
v2: Removing PWL point (0.00218155,0)
v2: Removing PWL point (0.0021827,0)
v2: Removing PWL point (0.00218385,0)
v2: Removing PWL point (0.002185,0)
v2: Removing PWL point (0.00218615,0)
v2: Removing PWL point (0.0021873,0)
v2: Removing PWL point (0.00218845,0)
v2: Removing PWL point (0.0021896,0)
v2: Removing PWL point (0.00219075,0)
v2: Removing PWL point (0.0021919,0)
v2: Removing PWL point (0.00219305,0)
v2: Removing PWL point (0.0021942,0)
v2: Removing PWL point (0.00219535,0)
v2: Removing PWL point (0.0021965,0)
v2: Removing PWL point (0.00219765,0)
v2: Removing PWL point (0.0021988,0)
v2: Removing PWL point (0.00219995,0)
v2: Removing PWL point (0.0022011,0)
v2: Removing PWL point (0.00220225,0)
v2: Removing PWL point (0.0022034,0)
v2: Removing PWL point (0.00220455,0)
v2: Removing PWL point (0.0022057,0)
v2: Removing PWL point (0.00220685,0)
v2: Removing PWL point (0.002208,0)
v2: Removing PWL point (0.00220915,0)
v2: Removing PWL point (0.0022103,0)
v2: Removing PWL point (0.00221145,0)
v2: Removing PWL point (0.0022126,0)
v2: Removing PWL point (0.00221375,0)
v2: Removing PWL point (0.0022149,0)
v2: Removing PWL point (0.00221605,0)
v2: Removing PWL point (0.0022172,0)
v2: Removing PWL point (0.00221835,0)
v2: Removing PWL point (0.0022195,0)
v2: Removing PWL point (0.00222065,0)
v2: Removing PWL point (0.0022218,0)
v2: Removing PWL point (0.00222295,0)
v2: Removing PWL point (0.0022241,0)
v2: Removing PWL point (0.00222525,0)
v2: Removing PWL point (0.0022264,0)
v2: Removing PWL point (0.00222755,0)
v2: Removing PWL point (0.0022287,0)
v2: Removing PWL point (0.00222985,0)
v2: Removing PWL point (0.002231,0)
v2: Removing PWL point (0.00223215,0)
v2: Removing PWL point (0.0022333,0)
v2: Removing PWL point (0.00223445,0)
v2: Removing PWL point (0.0022356,0)
v2: Removing PWL point (0.00223675,0)
v2: Removing PWL point (0.0022379,0)
v2: Removing PWL point (0.00223905,0)
v2: Removing PWL point (0.0022402,0)
v2: Removing PWL point (0.00224135,0)
v2: Removing PWL point (0.0022425,0)
v2: Removing PWL point (0.00224365,0)
v2: Removing PWL point (0.0022448,0)
v2: Removing PWL point (0.00224595,0)
v2: Removing PWL point (0.0022471,0)
v2: Removing PWL point (0.00224825,0)
v2: Removing PWL point (0.0022494,0)
v2: Removing PWL point (0.00225055,0)
v2: Removing PWL point (0.0022517,0)
v2: Removing PWL point (0.00225285,0)
v2: Removing PWL point (0.002254,0)
v2: Removing PWL point (0.00225515,0)
v2: Removing PWL point (0.0022563,0)
v2: Removing PWL point (0.00225745,0)
v2: Removing PWL point (0.0022586,0)
v2: Removing PWL point (0.00225975,0)
v2: Removing PWL point (0.0022609,0)
v2: Removing PWL point (0.00226205,0)
v2: Removing PWL point (0.0022632,0)
v2: Removing PWL point (0.00226435,0)
v2: Removing PWL point (0.0022655,0)
v2: Removing PWL point (0.00226665,0)
v2: Removing PWL point (0.0022678,0)
v2: Removing PWL point (0.00226895,0)
v2: Removing PWL point (0.0022701,0)
v2: Removing PWL point (0.00227125,0)
v2: Removing PWL point (0.0022724,0)
v2: Removing PWL point (0.00227355,0)
v2: Removing PWL point (0.0022747,0)
v2: Removing PWL point (0.00227585,0)
v2: Removing PWL point (0.002277,0)
v2: Removing PWL point (0.00227815,0)
v2: Removing PWL point (0.0022793,0)
v2: Removing PWL point (0.00228045,0)
v2: Removing PWL point (0.0022816,0)
v2: Removing PWL point (0.00228275,0)
v2: Removing PWL point (0.0022839,0)
v2: Removing PWL point (0.00228505,0)
v2: Removing PWL point (0.0022862,0)
v2: Removing PWL point (0.00228735,0)
v2: Removing PWL point (0.0022885,0)
v2: Removing PWL point (0.00228965,0)
v2: Removing PWL point (0.0022908,0)
v2: Removing PWL point (0.00229195,0)
v2: Removing PWL point (0.0022931,0)
v2: Removing PWL point (0.00229425,0)
v2: Removing PWL point (0.0022954,0)
v2: Removing PWL point (0.00229655,0)
v2: Removing PWL point (0.0022977,0)
v2: Removing PWL point (0.00229885,0)
v2: Removing PWL point (0.0023,0)
v2: Removing PWL point (0.00230115,0)
v2: Removing PWL point (0.0023023,0)
v2: Removing PWL point (0.00230345,0)
v2: Removing PWL point (0.0023046,0)
v2: Removing PWL point (0.00230575,0)
v2: Removing PWL point (0.0023069,0)
v2: Removing PWL point (0.00230805,0)
v2: Removing PWL point (0.0023092,0)
v2: Removing PWL point (0.00231035,0)
v2: Removing PWL point (0.0023115,0)
v2: Removing PWL point (0.00231265,0)
v2: Removing PWL point (0.0023138,0)
v2: Removing PWL point (0.00231495,0)
v2: Removing PWL point (0.0023161,0)
v2: Removing PWL point (0.00231725,0)
v2: Removing PWL point (0.0023184,0)
v2: Removing PWL point (0.00231955,0)
v2: Removing PWL point (0.0023207,0)
v2: Removing PWL point (0.00232185,0)
v2: Removing PWL point (0.002323,0)
v2: Removing PWL point (0.00232415,0)
v2: Removing PWL point (0.0023253,0)
v2: Removing PWL point (0.00232645,0)
v2: Removing PWL point (0.0023276,0)
v2: Removing PWL point (0.00232875,0)
v2: Removing PWL point (0.0023299,0)
v2: Removing PWL point (0.00233105,0)
v2: Removing PWL point (0.0023322,0)
v2: Removing PWL point (0.00233335,0)
v2: Removing PWL point (0.0023345,0)
v2: Removing PWL point (0.00233565,0)
v2: Removing PWL point (0.0023368,0)
v2: Removing PWL point (0.00233795,0)
v2: Removing PWL point (0.0023391,0)
v2: Removing PWL point (0.00234025,0)
v2: Removing PWL point (0.0023414,0)
v2: Removing PWL point (0.00234255,0)
v2: Removing PWL point (0.0023437,0)
v2: Removing PWL point (0.00234485,0)
v2: Removing PWL point (0.002346,0)
v2: Removing PWL point (0.00234715,0)
v2: Removing PWL point (0.0023483,0)
v2: Removing PWL point (0.00234945,0)
v2: Removing PWL point (0.0023506,0)
v2: Removing PWL point (0.00235175,0)
v2: Removing PWL point (0.0023529,0)
v2: Removing PWL point (0.00235405,0)
v2: Removing PWL point (0.0023552,0)
v2: Removing PWL point (0.00235635,0)
v2: Removing PWL point (0.0023575,0)
v2: Removing PWL point (0.00235865,0)
v2: Removing PWL point (0.0023598,0)
v2: Removing PWL point (0.00236095,0)
v2: Removing PWL point (0.0023621,0)
v2: Removing PWL point (0.00236325,0)
v2: Removing PWL point (0.0023644,0)
v2: Removing PWL point (0.00236555,0)
v2: Removing PWL point (0.0023667,0)
v2: Removing PWL point (0.00236785,0)
v2: Removing PWL point (0.002369,0)
v2: Removing PWL point (0.00237015,0)
v2: Removing PWL point (0.0023713,0)
v2: Removing PWL point (0.00237245,0)
v2: Removing PWL point (0.0023736,0)
v2: Removing PWL point (0.00237475,0)
v2: Removing PWL point (0.0023759,0)
v2: Removing PWL point (0.00237705,0)
v2: Removing PWL point (0.0023782,0)
v2: Removing PWL point (0.00237935,0)
v2: Removing PWL point (0.0023805,0)
v2: Removing PWL point (0.00238165,0)
v2: Removing PWL point (0.0023828,0)
v2: Removing PWL point (0.00238395,0)
v2: Removing PWL point (0.0023851,0)
v2: Removing PWL point (0.00238625,0)
v2: Removing PWL point (0.0023874,0)
v2: Removing PWL point (0.0023897,0)
v2: Removing PWL point (0.00239085,0)
v2: Removing PWL point (0.002392,0)
v2: Removing PWL point (0.00239315,0)
v2: Removing PWL point (0.0023943,0)
v2: Removing PWL point (0.00239545,0)
v2: Removing PWL point (0.0023966,0)
v2: Removing PWL point (0.00239775,0)
v2: Removing PWL point (0.0023989,0)
v2: Removing PWL point (0.00240005,0)
v2: Removing PWL point (0.0024012,0)
v2: Removing PWL point (0.00240235,0)
v2: Removing PWL point (0.0024035,0)
v2: Removing PWL point (0.00240465,0)
v2: Removing PWL point (0.0024058,0)
v2: Removing PWL point (0.00240695,0)
v2: Removing PWL point (0.0024081,0)
v2: Removing PWL point (0.00240925,0)
v2: Removing PWL point (0.0024104,0)
v2: Removing PWL point (0.00241155,0)
v2: Removing PWL point (0.0024127,0)
v2: Removing PWL point (0.00241385,0)
v2: Removing PWL point (0.002415,0)
v2: Removing PWL point (0.00241615,0)
v2: Removing PWL point (0.0024173,0)
v2: Removing PWL point (0.00241845,0)
v2: Removing PWL point (0.0024196,0)
v2: Removing PWL point (0.00242075,0)
v2: Removing PWL point (0.0024219,0)
v2: Removing PWL point (0.00242305,0)
v2: Removing PWL point (0.0024242,0)
v2: Removing PWL point (0.00242535,0)
v2: Removing PWL point (0.0024265,0)
v2: Removing PWL point (0.00242765,0)
v2: Removing PWL point (0.0024288,0)
v2: Removing PWL point (0.00242995,0)
v2: Removing PWL point (0.0024311,0)
v2: Removing PWL point (0.00243225,0)
v2: Removing PWL point (0.0024334,0)
v2: Removing PWL point (0.00243455,0)
v2: Removing PWL point (0.0024357,0)
v2: Removing PWL point (0.00243685,0)
v2: Removing PWL point (0.002438,0)
v2: Removing PWL point (0.00243915,0)
v2: Removing PWL point (0.0024403,0)
v2: Removing PWL point (0.00244145,0)
v2: Removing PWL point (0.0024426,0)
v2: Removing PWL point (0.00244375,0)
v2: Removing PWL point (0.0024449,0)
v2: Removing PWL point (0.00244605,0)
v2: Removing PWL point (0.0024472,0)
v2: Removing PWL point (0.00244835,0)
v2: Removing PWL point (0.0024495,0)
v2: Removing PWL point (0.00245065,0)
v2: Removing PWL point (0.0024518,0)
v2: Removing PWL point (0.00245295,0)
v2: Removing PWL point (0.0024541,0)
v2: Removing PWL point (0.00245525,0)
v2: Removing PWL point (0.0024564,0)
v2: Removing PWL point (0.00245755,0)
v2: Removing PWL point (0.0024587,0)
v2: Removing PWL point (0.00245985,0)
v2: Removing PWL point (0.002461,0)
v2: Removing PWL point (0.00246215,0)
v2: Removing PWL point (0.0024633,0)
v2: Removing PWL point (0.00246445,0)
v2: Removing PWL point (0.0024656,0)
v2: Removing PWL point (0.00246675,0)
v2: Removing PWL point (0.0024679,0)
v2: Removing PWL point (0.00246905,0)
v2: Removing PWL point (0.0024702,0)
v2: Removing PWL point (0.00247135,0)
v2: Removing PWL point (0.0024725,0)
v2: Removing PWL point (0.00247365,0)
[...]
v2: Removing PWL point (0.0108744,0)
v2: Removing PWL point (0.0108756,0)
v2: Removing PWL point (0.0108767,0)
v2: Removing PWL point (0.0108779,0)
v2: Removing PWL point (0.010879,0)
v2: Removing PWL point (0.0108802,0)
v2: Removing PWL point (0.0108813,0)
v2: Removing PWL point (0.0108825,0)
v2: Removing PWL point (0.0108836,0)
v2: Removing PWL point (0.0108848,0)
v2: Removing PWL point (0.0108859,0)
v2: Removing PWL point (0.0108871,0)
v2: Removing PWL point (0.0108882,0)
v2: Removing PWL point (0.0108894,0)
v2: Removing PWL point (0.0108905,0)
v2: Removing PWL point (0.0108917,0)
v2: Removing PWL point (0.0108928,0)
v2: Removing PWL point (0.010894,0)
v2: Removing PWL point (0.0108951,0)
v2: Removing PWL point (0.0108963,0)
v2: Removing PWL point (0.0108974,0)
v2: Removing PWL point (0.0108986,0)
v2: Removing PWL point (0.0108997,0)
v2: Removing PWL point (0.0109009,0)
v2: Removing PWL point (0.010902,0)
v2: Removing PWL point (0.0109032,0)
v2: Removing PWL point (0.0109043,0)
v2: Removing PWL point (0.0109055,0)
v2: Removing PWL point (0.0109066,0)
v2: Removing PWL point (0.0109078,0)
v2: Removing PWL point (0.0109089,0)
v2: Removing PWL point (0.0109101,0)
v2: Removing PWL point (0.0109112,0)
v2: Removing PWL point (0.0109124,0)
v2: Removing PWL point (0.0109135,0)
v2: Removing PWL point (0.0109147,0)
v2: Removing PWL point (0.0109158,0)
v2: Removing PWL point (0.010917,0)
v2: Removing PWL point (0.0109181,0)
v2: Removing PWL point (0.0109193,0)
v2: Removing PWL point (0.0109204,0)
v2: Removing PWL point (0.0109216,0)
v2: Removing PWL point (0.0109227,0)
v2: Removing PWL point (0.0109239,0)
v2: Removing PWL point (0.010925,0)
v2: Removing PWL point (0.0109262,0)
v2: Removing PWL point (0.0109273,0)
v2: Removing PWL point (0.0109285,0)
v2: Removing PWL point (0.0109296,0)
v2: Removing PWL point (0.0109308,0)
v2: Removing PWL point (0.0109319,0)
v2: Removing PWL point (0.0109331,0)
v2: Removing PWL point (0.0109342,0)
v2: Removing PWL point (0.0109354,0)
v2: Removing PWL point (0.0109365,0)
v2: Removing PWL point (0.0109377,0)
v2: Removing PWL point (0.0109388,0)
v2: Removing PWL point (0.01094,0)
v2: Removing PWL point (0.0109411,0)
v2: Removing PWL point (0.0109423,0)
v2: Removing PWL point (0.0109434,0)
v2: Removing PWL point (0.0109446,0)
v2: Removing PWL point (0.0109457,0)
v2: Removing PWL point (0.0109469,0)
v2: Removing PWL point (0.010948,0)
v2: Removing PWL point (0.0109492,0)
v2: Removing PWL point (0.0109503,0)
v2: Removing PWL point (0.0109515,0)
v2: Removing PWL point (0.0109526,0)
v2: Removing PWL point (0.0109538,0)
v2: Removing PWL point (0.0109549,0)
v2: Removing PWL point (0.0109561,0)
v2: Removing PWL point (0.0109572,0)
v2: Removing PWL point (0.0109584,0)
v2: Removing PWL point (0.0109595,0)
v2: Removing PWL point (0.0109607,0)
v2: Removing PWL point (0.0109618,0)
v2: Removing PWL point (0.010963,0)
v2: Removing PWL point (0.0109641,0)
v2: Removing PWL point (0.0109653,0)
v2: Removing PWL point (0.0109664,0)
v2: Removing PWL point (0.0109676,0)
v2: Removing PWL point (0.0109687,0)
v2: Removing PWL point (0.0109699,0)
v2: Removing PWL point (0.010971,0)
v2: Removing PWL point (0.0109722,0)
v2: Removing PWL point (0.0109733,0)
v2: Removing PWL point (0.0109745,0)
v2: Removing PWL point (0.0109756,0)
v2: Removing PWL point (0.0109768,0)
v2: Removing PWL point (0.0109779,0)
v2: Removing PWL point (0.0109791,0)
v2: Removing PWL point (0.0109802,0)
v2: Removing PWL point (0.0109814,0)
v2: Removing PWL point (0.0109825,0)
v2: Removing PWL point (0.0109837,0)
v2: Removing PWL point (0.0109848,0)
v2: Removing PWL point (0.010986,0)
v2: Removing PWL point (0.0109871,0)
v2: Removing PWL point (0.0109883,0)
v2: Removing PWL point (0.0109894,0)
v2: Removing PWL point (0.0109906,0)
v2: Removing PWL point (0.0109917,0)
v2: Removing PWL point (0.0109929,0)
v2: Removing PWL point (0.010994,0)
v2: Removing PWL point (0.0109952,0)
v2: Removing PWL point (0.0109963,0)
v2: Removing PWL point (0.0109975,0)
v2: Removing PWL point (0.0109986,0)
v2: Removing PWL point (0.0109998,0)
v2: Removing PWL point (0.0110009,0)
v2: Removing PWL point (0.0110021,0)
v2: Removing PWL point (0.0110032,0)
v2: Removing PWL point (0.0110044,0)
v2: Removing PWL point (0.0110055,0)
v2: Removing PWL point (0.0110067,0)
v2: Removing PWL point (0.0110078,0)
v2: Removing PWL point (0.011009,0)
v2: Removing PWL point (0.0110101,0)
v2: Removing PWL point (0.0110113,0)
v2: Removing PWL point (0.0110124,0)
v2: Removing PWL point (0.0110136,0)
v2: Removing PWL point (0.0110147,0)
v2: Removing PWL point (0.0110159,0)
v2: Removing PWL point (0.011017,0)
v2: Removing PWL point (0.0110182,0)
v2: Removing PWL point (0.0110193,0)
v2: Removing PWL point (0.0110205,0)
v2: Removing PWL point (0.0110216,0)
v2: Removing PWL point (0.0110228,0)
v2: Removing PWL point (0.0110239,0)
v2: Removing PWL point (0.0110251,0)
v2: Removing PWL point (0.0110262,0)
v2: Removing PWL point (0.0110274,0)
v2: Removing PWL point (0.0110285,0)
v2: Removing PWL point (0.0110297,0)
v2: Removing PWL point (0.0110308,0)
v2: Removing PWL point (0.011032,0)
v2: Removing PWL point (0.0110331,0)
v2: Removing PWL point (0.0110343,0)
v2: Removing PWL point (0.0110354,0)
v2: Removing PWL point (0.0110366,0)
v2: Removing PWL point (0.0110377,0)
v2: Removing PWL point (0.0110389,0)
v2: Removing PWL point (0.01104,0)
v2: Removing PWL point (0.0110412,0)
v2: Removing PWL point (0.0110423,0)
v2: Removing PWL point (0.0110435,0)
v2: Removing PWL point (0.0110446,0)
v2: Removing PWL point (0.0110458,0)
v2: Removing PWL point (0.0110469,0)
v2: Removing PWL point (0.0110481,0)
v2: Removing PWL point (0.0110492,0)
v2: Removing PWL point (0.0110504,0)
v2: Removing PWL point (0.0110515,0)
v2: Removing PWL point (0.0110527,0)
v2: Removing PWL point (0.0110538,0)
v2: Removing PWL point (0.011055,0)
v2: Removing PWL point (0.0110561,0)
v2: Removing PWL point (0.0110573,0)
v2: Removing PWL point (0.0110584,0)
v2: Removing PWL point (0.0110596,0)
v2: Removing PWL point (0.0110607,0)
v2: Removing PWL point (0.0110619,0)
v2: Removing PWL point (0.011063,0)
v2: Removing PWL point (0.0110642,0)
v2: Removing PWL point (0.0110653,0)
v2: Removing PWL point (0.0110665,0)
v2: Removing PWL point (0.0110676,0)
v2: Removing PWL point (0.0110688,0)
v2: Removing PWL point (0.0110699,0)
v2: Removing PWL point (0.0110711,0)
v2: Removing PWL point (0.0110722,0)
v2: Removing PWL point (0.0110734,0)
v2: Removing PWL point (0.0110745,0)
v2: Removing PWL point (0.0110757,0)
v2: Removing PWL point (0.0110768,0)
v2: Removing PWL point (0.011078,0)
v2: Removing PWL point (0.0110791,0)
v2: Removing PWL point (0.0110803,0)
v2: Removing PWL point (0.0110814,0)
v2: Removing PWL point (0.0110826,0)
v2: Removing PWL point (0.0110837,0)
v2: Removing PWL point (0.0110849,0)
v2: Removing PWL point (0.011086,0)
v2: Removing PWL point (0.0110872,0)
v2: Removing PWL point (0.0110883,0)
v2: Removing PWL point (0.0110895,0)
v2: Removing PWL point (0.0110906,0)
v2: Removing PWL point (0.0110918,0)
v2: Removing PWL point (0.0110929,0)
v2: Removing PWL point (0.0110941,0)
v2: Removing PWL point (0.0110952,0)
v2: Removing PWL point (0.0110964,0)
v2: Removing PWL point (0.0110975,0)
v2: Removing PWL point (0.0110987,0)
v2: Removing PWL point (0.0110998,0)
v2: Removing PWL point (0.011101,0)
v2: Removing PWL point (0.0111021,0)
v2: Removing PWL point (0.0111033,0)
v2: Removing PWL point (0.0111044,0)
v2: Removing PWL point (0.0111067,0)
v2: Removing PWL point (0.0111079,0)
v2: Removing PWL point (0.011109,0)
v2: Removing PWL point (0.0111102,0)
v2: Removing PWL point (0.0111113,0)
v2: Removing PWL point (0.0111125,0)
v2: Removing PWL point (0.0111136,0)
v2: Removing PWL point (0.0111148,0)
v2: Removing PWL point (0.0111159,0)
v2: Removing PWL point (0.0111171,0)
v2: Removing PWL point (0.0111182,0)
v2: Removing PWL point (0.0111194,0)
v2: Removing PWL point (0.0111205,0)
v2: Removing PWL point (0.0111217,0)
v2: Removing PWL point (0.0111228,0)
v2: Removing PWL point (0.011124,0)
v2: Removing PWL point (0.0111251,0)
v2: Removing PWL point (0.0111263,0)
v2: Removing PWL point (0.0111274,0)
v2: Removing PWL point (0.0111286,0)
v2: Removing PWL point (0.0111297,0)
v2: Removing PWL point (0.0111309,0)
v2: Removing PWL point (0.011132,0)
v2: Removing PWL point (0.0111332,0)
v2: Removing PWL point (0.0111343,0)
v2: Removing PWL point (0.0111355,0)
v2: Removing PWL point (0.0111366,0)
v2: Removing PWL point (0.0111378,0)
v2: Removing PWL point (0.0111389,0)
v2: Removing PWL point (0.0111401,0)
v2: Removing PWL point (0.0111412,0)
v2: Removing PWL point (0.0111424,0)
v2: Removing PWL point (0.0111435,0)
v2: Removing PWL point (0.0111447,0)
v2: Removing PWL point (0.0111458,0)
v2: Removing PWL point (0.011147,0)
v2: Removing PWL point (0.0111481,0)
v2: Removing PWL point (0.0111493,0)
v2: Removing PWL point (0.0111504,0)
v2: Removing PWL point (0.0111516,0)
v2: Removing PWL point (0.0111527,0)
v2: Removing PWL point (0.0111539,0)
v2: Removing PWL point (0.011155,0)
v2: Removing PWL point (0.0111562,0)
v2: Removing PWL point (0.0111573,0)
v2: Removing PWL point (0.0111585,0)
v2: Removing PWL point (0.0111596,0)
v2: Removing PWL point (0.0111608,0)
v2: Removing PWL point (0.0111619,0)
v2: Removing PWL point (0.0111631,0)
v2: Removing PWL point (0.0111642,0)
v2: Removing PWL point (0.0111654,0)
v2: Removing PWL point (0.0111665,0)
v2: Removing PWL point (0.0111677,0)
v2: Removing PWL point (0.0111688,0)
v2: Removing PWL point (0.01117,0)
v2: Removing PWL point (0.0111711,0)
v2: Removing PWL point (0.0111723,0)
v2: Removing PWL point (0.0111734,0)
v2: Removing PWL point (0.0111746,0)
v2: Removing PWL point (0.0111757,0)
v2: Removing PWL point (0.0111769,0)
v2: Removing PWL point (0.011178,0)
v2: Removing PWL point (0.0111792,0)
v2: Removing PWL point (0.0111803,0)
v2: Removing PWL point (0.0111815,0)
v2: Removing PWL point (0.0111826,0)
v2: Removing PWL point (0.0111838,0)
v2: Removing PWL point (0.0111849,0)
v2: Removing PWL point (0.0111861,0)
v2: Removing PWL point (0.0111872,0)
v2: Removing PWL point (0.0111884,0)
v2: Removing PWL point (0.0111895,0)
v2: Removing PWL point (0.0111907,0)
v2: Removing PWL point (0.0111918,0)
v2: Removing PWL point (0.011193,0)
v2: Removing PWL point (0.0111941,0)
v2: Removing PWL point (0.0111953,0)
v2: Removing PWL point (0.0111964,0)
v2: Removing PWL point (0.0111976,0)
v2: Removing PWL point (0.0111987,0)
v2: Removing PWL point (0.0111999,0)
v2: Removing PWL point (0.011201,0)
v2: Removing PWL point (0.0112022,0)
v2: Removing PWL point (0.0112033,0)
v2: Removing PWL point (0.0112045,0)
v2: Removing PWL point (0.0112056,0)
v2: Removing PWL point (0.0112068,0)
v2: Removing PWL point (0.0112079,0)
v2: Removing PWL point (0.0112091,0)
v2: Removing PWL point (0.0112102,0)
v2: Removing PWL point (0.0112114,0)
v2: Removing PWL point (0.0112125,0)
v2: Removing PWL point (0.0112137,0)
v2: Removing PWL point (0.0112148,0)
v2: Removing PWL point (0.011216,0)
v2: Removing PWL point (0.0112171,0)
v2: Removing PWL point (0.0112183,0)
v2: Removing PWL point (0.0112194,0)
v2: Removing PWL point (0.0112206,0)
v2: Removing PWL point (0.0112217,0)
v2: Removing PWL point (0.0112229,0)
v2: Removing PWL point (0.011224,0)
v2: Removing PWL point (0.0112252,0)
v2: Removing PWL point (0.0112263,0)
v2: Removing PWL point (0.0112275,0)
v2: Removing PWL point (0.0112286,0)
v2: Removing PWL point (0.0112298,0)
v2: Removing PWL point (0.0112309,0)
v2: Removing PWL point (0.0112321,0)
v2: Removing PWL point (0.0112332,0)
v2: Removing PWL point (0.0112344,0)
v2: Removing PWL point (0.0112355,0)
v2: Removing PWL point (0.0112367,0)
v2: Removing PWL point (0.0112378,0)
v2: Removing PWL point (0.011239,0)
v2: Removing PWL point (0.0112401,0)
v2: Removing PWL point (0.0112413,0)
v2: Removing PWL point (0.0112424,0)
v2: Removing PWL point (0.0112436,0)
v2: Removing PWL point (0.0112447,0)
v2: Removing PWL point (0.0112459,0)
v2: Removing PWL point (0.011247,0)
v2: Removing PWL point (0.0112482,0)
v2: Removing PWL point (0.0112505,0)
v2: Removing PWL point (0.0112516,0)
v2: Removing PWL point (0.0112528,0)
v2: Removing PWL point (0.0112539,0)
v2: Removing PWL point (0.0112551,0)
v2: Removing PWL point (0.0112562,0)
v2: Removing PWL point (0.0112574,0)
v2: Removing PWL point (0.0112585,0)
v2: Removing PWL point (0.0112597,0)
v2: Removing PWL point (0.0112608,0)
v2: Removing PWL point (0.011262,0)
v2: Removing PWL point (0.0112631,0)
v2: Removing PWL point (0.0112643,0)
v2: Removing PWL point (0.0112654,0)
v2: Removing PWL point (0.0112666,0)
v2: Removing PWL point (0.0112677,0)
v2: Removing PWL point (0.0112689,0)
v2: Removing PWL point (0.01127,0)
v2: Removing PWL point (0.0112712,0)
v2: Removing PWL point (0.0112735,0)
v2: Removing PWL point (0.0112746,0)
v2: Removing PWL point (0.0112758,0)
v2: Removing PWL point (0.0112769,0)
v2: Removing PWL point (0.0112781,0)
v2: Removing PWL point (0.0112792,0)
v2: Removing PWL point (0.0112804,0)
v2: Removing PWL point (0.0112815,0)
v2: Removing PWL point (0.0112827,0)
v2: Removing PWL point (0.0112838,0)
v2: Removing PWL point (0.011285,0)
v2: Removing PWL point (0.0112861,0)
v2: Removing PWL point (0.0112873,0)
v2: Removing PWL point (0.0112884,0)
v2: Removing PWL point (0.0112896,0)
v2: Removing PWL point (0.0112907,0)
v2: Removing PWL point (0.0112919,0)
v2: Removing PWL point (0.011293,0)
v2: Removing PWL point (0.0112942,0)
v2: Removing PWL point (0.0112953,0)
v2: Removing PWL point (0.0112965,0)
v2: Removing PWL point (0.0112976,0)
v2: Removing PWL point (0.0112988,0)
v2: Removing PWL point (0.0112999,0)
v2: Removing PWL point (0.0113011,0)
v2: Removing PWL point (0.0113022,0)
v2: Removing PWL point (0.0113034,0)
v2: Removing PWL point (0.0113045,0)
v2: Removing PWL point (0.0113057,0)
v2: Removing PWL point (0.0113068,0)
v2: Removing PWL point (0.011308,0)
v2: Removing PWL point (0.0113091,0)
v2: Removing PWL point (0.0113103,0)
v2: Removing PWL point (0.0113114,0)
v2: Removing PWL point (0.0113126,0)
v2: Removing PWL point (0.0113137,0)
v2: Removing PWL point (0.0113149,0)
v2: Removing PWL point (0.011316,0)
v2: Removing PWL point (0.0113172,0)
v2: Removing PWL point (0.0113183,0)
v2: Removing PWL point (0.0113195,0)
v2: Removing PWL point (0.0113206,0)
v2: Removing PWL point (0.0113218,0)
v2: Removing PWL point (0.0113229,0)
v2: Removing PWL point (0.0113241,0)
v2: Removing PWL point (0.0113252,0)
v2: Removing PWL point (0.0113264,0)
v2: Removing PWL point (0.0113275,0)
v2: Removing PWL point (0.0113287,0)
v2: Removing PWL point (0.0113298,0)
v2: Removing PWL point (0.011331,0)
v2: Removing PWL point (0.0113321,0)
v2: Removing PWL point (0.0113333,0)
v2: Removing PWL point (0.0113344,0)
v2: Removing PWL point (0.0113356,0)
v2: Removing PWL point (0.0113367,0)
v2: Removing PWL point (0.0113379,0)
v2: Removing PWL point (0.011339,0)
v2: Removing PWL point (0.0113402,0)
v2: Removing PWL point (0.0113413,0)
v2: Removing PWL point (0.0113425,0)
v2: Removing PWL point (0.0113436,0)
v2: Removing PWL point (0.0113448,0)
v2: Removing PWL point (0.0113459,0)
v2: Removing PWL point (0.0113471,0)
v2: Removing PWL point (0.0113482,0)
v2: Removing PWL point (0.0113494,0)
v2: Removing PWL point (0.0113505,0)
v2: Removing PWL point (0.0113517,0)
v2: Removing PWL point (0.0113528,0)
v2: Removing PWL point (0.011354,0)
v2: Removing PWL point (0.0113551,0)
v2: Removing PWL point (0.0113563,0)
v2: Removing PWL point (0.0113574,0)
v2: Removing PWL point (0.0113586,0)
v2: Removing PWL point (0.0113597,0)
v2: Removing PWL point (0.0113609,0)
v2: Removing PWL point (0.011362,0)
v2: Removing PWL point (0.0113632,0)
v2: Removing PWL point (0.0113643,0)
v2: Removing PWL point (0.0113655,0)
v2: Removing PWL point (0.0113666,0)
v2: Removing PWL point (0.0113678,0)
v2: Removing PWL point (0.0113689,0)
v2: Removing PWL point (0.0113701,0)
v2: Removing PWL point (0.0113724,0)
v2: Removing PWL point (0.0113735,0)
v2: Removing PWL point (0.0113747,0)
v2: Removing PWL point (0.0113758,0)
v2: Removing PWL point (0.011377,0)
v2: Removing PWL point (0.0113781,0)
v2: Removing PWL point (0.0113793,0)
v2: Removing PWL point (0.0113804,0)
v2: Removing PWL point (0.0113816,0)
v2: Removing PWL point (0.0113827,0)
v2: Removing PWL point (0.0113839,0)
v2: Removing PWL point (0.011385,0)
v2: Removing PWL point (0.0113862,0)
v2: Removing PWL point (0.0113873,0)
v2: Removing PWL point (0.0113885,0)
v2: Removing PWL point (0.0113896,0)
v2: Removing PWL point (0.0113908,0)
v2: Removing PWL point (0.0113919,0)
v2: Removing PWL point (0.0113931,0)
v2: Removing PWL point (0.0113942,0)
v2: Removing PWL point (0.0113954,0)
v2: Removing PWL point (0.0113965,0)
v2: Removing PWL point (0.0113977,0)
v2: Removing PWL point (0.0113988,0)
v2: Removing PWL point (0.0114,0)
v2: Removing PWL point (0.0114011,0)
v2: Removing PWL point (0.0114023,0)
v2: Removing PWL point (0.0114034,0)
v2: Removing PWL point (0.0114046,0)
v2: Removing PWL point (0.0114057,0)
v2: Removing PWL point (0.0114069,0)
v2: Removing PWL point (0.011408,0)
v2: Removing PWL point (0.0114092,0)
v2: Removing PWL point (0.0114103,0)
v2: Removing PWL point (0.0114115,0)
v2: Removing PWL point (0.0114126,0)
v2: Removing PWL point (0.0114138,0)
v2: Removing PWL point (0.0114149,0)
v2: Removing PWL point (0.0114172,0)
v2: Removing PWL point (0.0114184,0)
v2: Removing PWL point (0.0114195,0)
v2: Removing PWL point (0.0114207,0)
v2: Removing PWL point (0.0114218,0)
v2: Removing PWL point (0.011423,0)
v2: Removing PWL point (0.0114241,0)
v2: Removing PWL point (0.0114253,0)
v2: Removing PWL point (0.0114264,0)
v2: Removing PWL point (0.0114276,0)
v2: Removing PWL point (0.0114287,0)
v2: Removing PWL point (0.0114299,0)
v2: Removing PWL point (0.011431,0)
v2: Removing PWL point (0.0114322,0)
v2: Removing PWL point (0.0114333,0)
v2: Removing PWL point (0.0114345,0)
v2: Removing PWL point (0.0114356,0)
v2: Removing PWL point (0.0114368,0)
v2: Removing PWL point (0.0114379,0)
v2: Removing PWL point (0.0114391,0)
v2: Removing PWL point (0.0114402,0)
v2: Removing PWL point (0.0114414,0)
v2: Removing PWL point (0.0114425,0)
v2: Removing PWL point (0.0114437,0)
v2: Removing PWL point (0.0114448,0)
v2: Removing PWL point (0.011446,0)
v2: Removing PWL point (0.0114471,0)
v2: Removing PWL point (0.0114483,0)
v2: Removing PWL point (0.0114494,0)
v2: Removing PWL point (0.0114506,0)
v2: Removing PWL point (0.0114517,0)
v2: Removing PWL point (0.0114529,0)
v2: Removing PWL point (0.011454,0)
v2: Removing PWL point (0.0114552,0)
v2: Removing PWL point (0.0114563,0)
v2: Removing PWL point (0.0114575,0)
v2: Removing PWL point (0.0114586,0)
v2: Removing PWL point (0.0114598,0)
v2: Removing PWL point (0.0114609,0)
v2: Removing PWL point (0.0114621,0)
v2: Removing PWL point (0.0114632,0)
v2: Removing PWL point (0.0114644,0)
v2: Removing PWL point (0.0114655,0)
v2: Removing PWL point (0.0114667,0)
v2: Removing PWL point (0.0114678,0)
v2: Removing PWL point (0.011469,0)
v2: Removing PWL point (0.0114701,0)
v2: Removing PWL point (0.0114713,0)
v2: Removing PWL point (0.0114724,0)
v2: Removing PWL point (0.0114736,0)
v2: Removing PWL point (0.0114747,0)
v2: Removing PWL point (0.0114759,0)
v2: Removing PWL point (0.011477,0)
v2: Removing PWL point (0.0114782,0)
v2: Removing PWL point (0.0114793,0)
v2: Removing PWL point (0.0114805,0)
v2: Removing PWL point (0.0114816,0)
v2: Removing PWL point (0.0114828,0)
v2: Removing PWL point (0.0114839,0)
v2: Removing PWL point (0.0114851,0)
v2: Removing PWL point (0.0114862,0)
v2: Removing PWL point (0.0114874,0)
v2: Removing PWL point (0.0114885,0)
v2: Removing PWL point (0.0114897,0)
v2: Removing PWL point (0.0114908,0)
v2: Removing PWL point (0.011492,0)
v2: Removing PWL point (0.0114931,0)
v2: Removing PWL point (0.0114943,0)
v2: Removing PWL point (0.0114954,0)
v2: Removing PWL point (0.0114966,0)
v2: Removing PWL point (0.0114977,0)
v2: Removing PWL point (0.0114989,0)
Direct Newton iteration for .op point succeeded.
Total elapsed time: 1609.818 seconds.

