LTspice 24.0.12 for Windows
Circuit: * C:\Users\smili\OneDrive\Documents\GitHub\Laboratorio_6_7_ITeDA\LTSpice\Agosto - Version nueva de las simulaciones\bode_circuito_completo_con_capacitores_en_preamp.asc
Start Time: Fri Sep 20 14:51:50 2024
solver = Normal
Maximum thread count: 12
tnom = 27
temp = 27
method = modified trap
Direct Newton iteration for .op point succeeded.
Total elapsed time: 0.082 seconds.

