LTspice 24.0.12 for Windows
Circuit: * C:\Users\smili\OneDrive\Documents\GitHub\Laboratorio_6_7_ITeDA\LTSpice\Agosto - Version nueva de las simulaciones\Draft2.asc
Start Time: Fri Sep 13 14:41:44 2024
solver = Normal
Maximum thread count: 12
tnom = 27
temp = 27
method = modified trap
WARNING: Less than two connections to node out.  This node is used by r3.
Direct Newton iteration for .op point succeeded.
Total elapsed time: 0.079 seconds.

