LTspice 24.0.9 for Windows
Circuit: * C:\Users\Usuario\OneDrive\Desktop\ITeDA\LTSpice\Modelos Importantes\PreAmp\preamp_v5_ajustadocondata.asc
Start Time: Mon Aug  5 00:58:58 2024
solver = Normal
Maximum thread count: 12
tnom = 27
temp = 27
method = modified trap
WARNING: Specified period is not longer than the sum of Trise, Tfall, and Ton for v1.  Increasing period to 4.002e-08
Direct Newton iteration for .op point succeeded.
Total elapsed time: 0.044 seconds.

